54
C14H26F6N2O4S2 optimized with ADF in AMS.
N        -1.51428648257451      -0.18089349192743      -0.06172659775662
C        -1.94854049631614      -1.14304920090315      -1.15848368491716
C        -2.63168581508935      -0.11077398041972       0.97346392503996
C        -0.23731868091012      -0.62502161337317       0.61470079766944
C        -1.35032338325176       1.17676753515713      -0.72826884295113
C        -2.30018808815383      -2.52355063579368      -0.63485602929668
C        -3.01632777767058      -1.47086506007219       1.53103146729510
C        -3.40910121562252      -2.43581519255583       0.41389023078973
C         1.00279864667478      -0.66673095296368      -0.26149950651817
C        -0.95631697123466       2.32481343895876       0.18149351272291
C         2.19553976936910      -1.19532629792237       0.54135358820446
C        -0.83376692797126       3.59682595292604      -0.66050057897680
C         3.47604626567546      -1.24406415079145      -0.28757239156100
H        -1.14080977284739      -1.16444216352300      -1.90333545636880
H        -2.83363786579989      -0.66766605644669      -1.61066712168287
H        -3.49157059159559       0.33185267599182       0.45661611535432
H        -2.29743580688945       0.57606475996817       1.76148201125577
H        -0.43270866741772      -1.61934832122825       1.03389298247806
H        -0.08908073563556       0.06286377946493       1.46053473190015
H        -2.32159060644155       1.38649137242056      -1.19710307528884
H        -0.60688552940109       1.03216512471796      -1.52672697715170
H        -1.40865848207898      -3.03531828802945      -0.23055362173917
H        -2.63129500755869      -3.11888757001880      -1.50226128696428
H        -3.88086441831882      -1.29055078323120       2.18972081725729
H        -2.21244612175480      -1.89317723650300       2.15879159341459
H        -4.33189395999754      -2.05872490971080      -0.05941889476279
H        -3.63019151171461      -3.43264374500894       0.82618628330027
H         1.24613293481250       0.33804565777320      -0.64402092099936
H         0.84415366904885      -1.32108714545517      -1.13527112742461
H        -1.73474157933449       2.48540206633745       0.94276450073639
H        -0.00030899296926       2.12355666358963       0.69511605443718
H         1.96090343486165      -2.20478248330091       0.92364371077400
H         2.35072747108688      -0.55412988352982       1.42748416868754
H        -0.55142081501620       4.45088657058844      -0.02827421676880
H        -0.07053592217166       3.48579451652691      -1.44646912658076
H        -1.79958898693490       3.82735462460777      -1.13287428063114
H         3.74615606804438      -0.24210601119824      -0.65614252826001
H         3.35735692265453      -1.90454234225975      -1.16107960610605
H         4.31950930105273      -1.62266964818386       0.30890176018009
N        -6.45689379001186       1.95726466107935      -0.50033048012432
S        -6.65954497094423       1.05924390129569       0.81342284098039
S        -5.03226648842373       2.14984122659260      -1.18574136208277
C        -6.08096752100729       2.16925935701069       2.24409558351248
C        -5.59136466305612       3.26880319908360      -2.58924956074413
O        -8.08354113822038       0.90249423968308       1.04372148476111
O        -5.76343851164674      -0.09782122097396       0.91077276114013
O        -4.47883664989733       0.96083626624030      -1.86000734821346
O        -4.07242531234209       2.95048629850898      -0.41359130915647
F        -6.65387924897090       1.74621466686038       3.39771145380491
F        -6.41673784881317       3.45852326870084       2.04119901487225
F        -4.72911293684754       2.09466055771422       2.40315037489287
F        -4.49007019371361       3.55562276349281      -3.33526984278773
F        -6.10616156501263       4.42294813889179      -2.12122964856827
F        -6.49975324560031       2.66460180914144      -3.38107774657753
