35
C9H17F6N2P optimized with ADF in AMS.
N        -0.34074163388412      -0.38880186690237       0.75127528368526
N        -2.42357291117441      -0.14643507521022       0.19579416395924
C         0.93052660763730      -0.23196986028440       1.48091778807667
C         2.04531393099213       0.28708209506357       0.57990564620932
C         1.73644593124653       1.64108138101717      -0.05133773738837
C        -1.50176559561874       0.17004968287511       1.11283299000164
C        -0.52250981789635      -1.07144341849129      -0.43533625052706
C        -1.83182925615522      -0.91518289458799      -0.78604973162383
C        -3.80915060783226       0.35702029965779       0.18529574539223
C         2.88839018231520       2.15523334202777      -0.90699093278689
C        -4.01714711124685       1.40215694780154      -0.89833146436840
H         0.72473870285696       0.48765265316026       2.28542056107185
H         1.18338046189454      -1.20931599501686       1.92206781725904
H         2.28205730391607      -0.46072863261914      -0.20035405635068
H         2.94945027480759       0.35808158072946       1.21097940208579
H         0.82189417655534       1.56830019454595      -0.66304869766681
H         1.49662036421298       2.36886753323093       0.74030305590916
H        -1.65358907191072       0.83229836028990       1.95910760313212
H         0.28366842687778      -1.60285389669869      -0.92416758530765
H        -4.46736366020931      -0.51746620732095       0.06017778513125
H        -3.98456318617327       0.79582829240478       1.17663371645138
H        -2.38433243698850      -1.28205353905440      -1.64141871577563
H         3.11735680230161       1.46438400449907      -1.73503199270024
H         3.80566563737236       2.27716086469608      -0.30854183717270
H         2.63851536468829       3.13478384680800      -1.34118345202813
H        -3.34304633370215       2.25337929288562      -0.73172016439467
H        -5.05537976878403       1.76173208051761      -0.85138646832979
H        -3.84326733472209       0.98588878916149      -1.90139028257647
P        -1.44779312253635       3.68109259039453       1.64347671243447
F        -2.44511137744894       4.69351099044694       0.83195597827395
F        -2.76222376147261       2.70269179377058       2.04518087900926
F        -1.26325202863839       2.76333379451667       0.24861574914687
F        -0.46138342021853       2.57022914589024       2.44871101220031
F        -0.12340684116555       4.55303253661437       1.23599310036293
F        -1.64075811669629       4.51212430638087       3.03283592300458
