48
C12H22F6N2O4S2 optimized with DFTB in AMS.
N        -0.31110905202827      -0.02012705006738      -1.04853285740421
C        -1.36308055538843       1.02923924792937      -1.27929002308311
C        -0.85277578422842      -1.35904265587286      -1.47226342039687
C         0.84247224863766       0.33571143736245      -1.95516273166454
C        -2.69158403795268       0.71340664711610      -0.60684361012926
C        -2.18290235569593      -1.71416052130859      -0.82361788215349
C         0.11185729600746      -0.08931510475739       0.38827283023706
C        -3.22301820466167      -0.63147269175514      -1.09738731493777
C         2.06535055081498      -0.57142214477667      -1.85088720355014
C         0.76600605447926       1.17377083432132       0.92896790843852
C         3.07485019644208      -0.15629417118740      -2.92220092385951
H        -1.51010631974567       1.08085045572256      -2.35953156223309
H        -0.96391754066909       1.98441049745772      -0.93432227593848
H        -0.10018595553239      -2.11193391167263      -1.23504427155646
H        -0.97762029791287      -1.31098084711053      -2.55408437134761
H         1.11575506581914       1.37107269686234      -1.73917097525650
H         0.44956907725877       0.28826369681291      -2.97154271290114
H        -3.38738849153333       1.51143502013512      -0.87849563922169
H        -2.59275647371557       0.71359337864608       0.48302397413419
H        -2.06966719323123      -1.87207281252205       0.25350981819672
H        -2.50596652632147      -2.65890736015585      -1.26807766601577
H        -0.77720192931577      -0.31810902616956       0.97834981443360
H         0.80269240042979      -0.93095843868196       0.47534396992220
H        -4.15814025449993      -0.87268980290786      -0.58720660952539
H        -3.41649647330996      -0.57571879330071      -2.17252389831298
H         2.52658692792314      -0.49583352919342      -0.86184973759081
H         1.78179349902224      -1.61123494689625      -2.02458397436939
H         1.00714370378866       0.99583865517598       1.97699206410901
H         1.68911098556421       1.40989246341586       0.40356880777674
H         0.09792926117689       2.03129878141930       0.87550475665056
H         3.96353499912508      -0.78156469673579      -2.84795844923488
H         2.63913942844667      -0.28327163521583      -3.91274612558826
H         3.36615294755749       0.88690073876240      -2.79500928889680
N        -0.87264118914243      -0.96011740227732      -6.31164491877142
S        -1.60285489908888       0.19326965903639      -5.49072267842524
S        -0.07989740072608      -2.07805906051102      -5.47918541679805
C        -0.32919421290066       1.56951728930641      -5.30577839238254
C        -1.38100844559675      -3.33779702753890      -4.95930374018478
O        -2.62143109007639       0.77510456037594      -6.31594750898601
O        -1.94770052433166      -0.12128281276958      -4.10783216211110
O         0.50399439232545      -1.63987536141108      -4.21781952190406
O         0.76526599520320      -2.78845113171603      -6.39443306783591
F        -0.54918978244126       2.21931763461918      -4.15542777752494
F        -0.40862488900295       2.43446500824204      -6.29610227538435
F         0.90428719691527       1.08254786544026      -5.25712306548571
F        -0.92885850705556      -4.56191697532670      -5.16509045211868
F        -2.49978495111871      -3.16907908949757      -5.63938096459900
F        -1.65360614231340      -3.20802144162366      -3.65954751311873
