40
C12H25NO2 optimized with ADF in AMS.
N        -0.28740031504705      -0.21543608235169      -0.09429494762939
C        -1.13411919684471       0.73731302062838      -0.90639872800002
C        -0.81417817037742      -1.64110706498073      -0.27059461669325
C         1.12244203194572      -0.14108694645065      -0.65145692016811
C        -2.61250041851531       0.65948306728594      -0.56447823963040
C        -2.30429528417226      -1.75913971948672       0.00112474424851
C        -0.30062563819644       0.12290187608253       1.39101728661128
C        -3.13931143140427      -0.75795996576168      -0.79216156581472
C         2.15954446570068      -1.00304442698240       0.04812486948833
C         0.17253588736387       1.52100159160409       1.72397897996052
C         3.50929439054845      -0.86744381743034      -0.65568770474482
H        -0.97603734335859       0.44978889855199      -1.95942386544506
H        -0.72161516153154       1.74590494393151      -0.76291089482033
H        -0.24543476488509      -2.24952087982710       0.46451610103465
H        -0.56813661696024      -1.90980714150835      -1.31206863957642
H         1.41237845900459       0.92169162113475      -0.62632399702818
H         1.03286198493296      -0.43130779455577      -1.71173809246258
H        -3.13778458427958       1.39092207332560      -1.20173585087606
H        -2.78374840393129       0.96916677959818       0.47983110598873
H        -2.46282131174925      -1.68401680938698       1.09163656349992
H        -2.58159401245460      -2.79529271064608      -0.25771599940947
H        -1.32063545934793      -0.05967289097455       1.74646141160806
H         0.29228988481837      -0.68240780761849       1.86264591148966
H        -4.19970306583213      -0.82440631478234      -0.50008995063025
H        -3.08813819414067      -0.98688282290282      -1.87407999601938
H         2.25832365454673      -0.71352492215096       1.10446353143450
H         1.84197026005911      -2.05534903936090       0.07058224180130
H         0.13618369956372       1.61913784370079       2.81981667951696
H         1.21187261788810       1.71298795676336       1.41781798036920
H        -0.46889634927196       2.31384651488223       1.30846473251264
H         4.25737860400561      -1.49860600273875      -0.15424609118604
H         3.45416176458743      -1.18575581901751      -1.70933549125189
H         3.87816789703123       0.17102058931181      -0.63527099164295
C        -0.08363702100921      -3.96602033368026       4.03373820728284
C        -0.33225869735619      -2.88193405749195       2.97555607731423
O         0.64360482007995      -2.66477685881188       2.17297748089562
O        -1.45697208981322      -2.30953581912508       2.96751766367220
H        -0.08720837596294      -4.95205894904510       3.54136720572186
H         0.91219103837134      -3.83580139364958       4.48271272762074
H        -0.85951504280592      -3.95450239518246       4.81140268695758
