61
C19H36F3NO2 optimized with ADF in AMS.
N        -0.65621659354450       1.93988414458646      -0.17058340446901
C        -1.56653989539156       2.50955526982065      -1.24159903333189
C        -0.29226877946603       3.03154925328153       0.81188286613210
C        -1.33104289418773       0.79641640311374       0.57129739689858
C         0.60493806571003       1.46283598004766      -0.88858179886353
C        -2.79957486786444       3.18030937448491      -0.66604454789336
C        -1.49644602634225       3.75075911393166       1.40197928426461
C        -2.41587051981151       4.29281457277247       0.30865099398766
C        -1.82884291617220      -0.32940318627274      -0.31571110679240
C         1.61027205762679       0.70702419104366      -0.04052302999069
C        -2.12530353396866      -1.57921692412185       0.51618646899084
C         2.78946543472632       0.29587336200001      -0.93007248094152
C        -2.51958484025256      -2.76173427748328      -0.36842227999606
C         3.83987913589065      -0.50727119165148      -0.16795444082212
C        -2.83585254573325      -4.02687032065151       0.42597232204360
C         4.99320378917675      -0.96503939746772      -1.05885675098457
C        -3.20972324842058      -5.20536557918972      -0.47114082604087
C         6.04596063671168      -1.76669532514383      -0.29731532518092
H        -0.95119998507892       3.23585196529615      -1.79675068706096
H        -1.80582645269511       1.68861926707614      -1.92710630296258
H         0.32598163691370       2.56498543022976       1.59124202661827
H         0.33493418075247       3.74000041502011       0.24783428664360
H        -0.57859487791469       0.43207527948257       1.28576709149653
H        -2.15004272426766       1.23687101581838       1.15441676704236
H         0.27990222756164       0.80770454221120      -1.72274843823750
H         1.05419434633191       2.37766606712654      -1.30823556228380
H        -3.37659791451096       3.58262126660807      -1.51444425284921
H        -3.44962590127317       2.43644359254723      -0.17392668805542
H        -2.05399689877947       3.08273449792802       2.07926148909028
H        -1.10870228607051       4.57093905633363       2.02946223874376
H        -3.31343048893530       4.74975951112569       0.75515886350883
H        -1.88834764992528       5.09064941209209      -0.24663319384754
H        -2.74738080781535      -0.02291224672723      -0.84408793924003
H        -1.09054969227939      -0.58314297506541      -1.09816119182102
H         1.15654288674742      -0.21642604530536       0.35545832105576
H         1.97774936438274       1.30225962273367       0.81486340668537
H        -2.92710755350498      -1.37619823302564       1.25209723323055
H        -1.22509578590951      -1.85281470506905       1.09858615471750
H         3.25892585203875       1.19825632474782      -1.36422861334525
H         2.38938785811084      -0.30194193116713      -1.76815844796684
H        -3.39718884377603      -2.48416750554575      -0.98117161199896
H        -1.69898216781663      -2.95910465394925      -1.08171604443217
H         4.23964244050513       0.09467243407180       0.67135468852608
H         3.35922082764900      -1.39586146264144       0.28371812250378
H        -1.96018713279394      -4.29600573133095       1.04520000599627
H        -3.66215015528736      -3.81838538611358       1.13097374602427
H         4.58389908116510      -1.57137391757669      -1.88606611431525
H         5.46359122153855      -0.08064333150430      -1.52655219404155
H        -3.44125912565373      -6.10679020711940       0.11695710672615
H        -2.38462752789017      -5.45088383955974      -1.15832488239235
H        -4.09265883278978      -4.96608207393427      -1.08544163878560
H         6.48735342860557      -1.16649243371073       0.51502936399261
H         5.60093261689065      -2.66747649901725       0.15587455042749
H         6.86373982676864      -2.09363706889317      -0.95781145934489
C        -0.11826366202085      -0.91152444153329      -3.91234810307303
O         0.16309627845298      -0.81321251383773      -2.67873222806602
O         0.23556070875682      -1.71819640004727      -4.77700264630839
C        -1.09629804191055       0.22804486709094      -4.39561962079682
F        -0.54247065669906       1.48887472097346      -4.21558519604628
F        -2.27930516672369       0.24251704566845      -3.66162967155223
F        -1.45921575273678       0.15109793239232      -5.69635564041618
