28
C10H15NO2 optimized with ForceField in AMS.
N        -0.50192450791165       0.00759082829713      -0.50640720699608
C         0.93654114009259       0.02815172189467      -0.79825991114828
C         1.73952991198009       0.02783959637032       0.50633214189621
C         3.24039077841907       0.04689885582317       0.23375800005823
C        -1.17181544850004       1.18476810244185      -0.31293203576909
C        -1.15727824877189      -1.18884136235599      -0.40085226086389
C        -2.53442148118874       1.18305610308357      -0.00460936789890
C        -2.51915097915836      -1.22651668779039      -0.09138597581886
C        -3.20929894461977      -0.03164911393522       0.10773622392810
H         1.21748725107167      -0.85722640125613      -1.41182979608013
H         1.19211804251523       0.92955420370462      -1.39941167090221
H         1.49062415090903      -0.88179969457378       1.09481715104016
H         1.46916664136035       0.92126465812101       1.11012556084787
H         3.53804299210135      -0.85056823947103      -0.34936883903595
H         3.79271259829877       0.04354431115982       1.19706248080268
H         3.51827130597771       0.96145014241736      -0.33222125793182
H        -0.65124456515072       2.13213167280432      -0.38733793969266
H        -0.62508315158976      -2.12196139001392      -0.54229241586386
H        -3.05994372947451       2.11633896274125       0.15144825660621
H        -3.03242070234114      -2.17521906913543      -0.00160969415671
H        -4.26372829775823      -0.04709036693117       0.35142015309852
C        -1.08651656118503       0.13865101451402       3.17493172270847
C        -0.39689310169573      -0.07650583710165       4.48379446378096
O        -0.61753358406402       0.67462700346758       5.41968149020713
O         0.38685449482109      -1.00186234911137       4.62178586970541
H        -2.18517361549196       0.05949018696394       3.31285755146576
H        -0.83787659770300       1.14724176391713       2.78316893720191
H        -0.76346377454240      -0.62437564034568       2.43664014711081
