43
C13H27NO2 optimized with ADF in AMS.
N         0.34751420050136       0.63770615831663      -0.08258904412842
C        -0.91363775594087       1.14407278467673       0.57939786568991
C         0.03970043818798       0.26184359980927      -1.52611005454534
C         0.87672904709072      -0.55228736050355       0.70147904784533
C         1.38183189335884       1.75174064428469      -0.15012787633264
C        -2.07706581838753       0.16605194394472       0.49171483340866
C        -1.08841621970676      -0.74712070160638      -1.63495869746014
C        -2.36194385629553      -0.23672197299090      -0.95594176148089
C         2.19665701419817      -1.12033378969159       0.21939066309795
C         1.90076959126354       2.26223038191984       1.18218350865134
C         2.58196732647039      -2.32250802029208       1.07823860450452
C         3.02328408752682       3.26669357038748       0.89964376683686
H        -0.66084092785178       1.38352126390038       1.62173972827473
H        -1.16359488179168       2.08157662462283       0.05674026599920
H        -0.26422757273029       1.21049730391020      -2.00062097159294
H         1.00716063610273      -0.04143069828101      -1.98869870146107
H         0.94865764753840      -0.21068611589834       1.74640920196177
H         0.09414139858304      -1.32172475157573       0.66267849591697
H         2.24525770105558       1.36292672253532      -0.73917208193724
H         0.89501273561939       2.56220537856775      -0.71843521532819
H        -1.87535792944580      -0.72623637100779       1.10788559693298
H        -2.95498369229335       0.66110565330709       0.94080615976997
H        -1.26404721301032      -0.92203757665220      -2.70936187631429
H        -0.78631527955373      -1.72168691221289      -1.21492444500180
H        -3.16146664031440      -0.99494049390656      -0.99008403800756
H        -2.73000968643108       0.64812152885392      -1.50807095669736
H         2.13162509890178      -1.40654867264860      -0.84211178285241
H         2.99087221268029      -0.35656937505725       0.24091880482165
H         1.11003050578939       2.73167613413779       1.79363520118773
H         2.32480280784001       1.42857592401748       1.76530805675660
H         3.54244683399328      -2.73401115863314       0.73521646368447
H         1.83059740153568      -3.12775287643072       1.01605043543144
H         2.69799401520243      -2.04534410950865       2.13929457175499
H         3.46545504750405       3.63089462445039       1.83840634003766
H         2.64403153228786       4.13655232028923       0.34009505660381
H         3.80226497690917       2.78268196660627       0.29054588629916
C         4.98576012761172       0.39588671464342      -3.35251093560469
C         3.82255007257920       0.41219866538888      -2.35511251906465
O         2.75049245248800      -0.15288418209117      -2.73742920905164
O         4.02499103681588       0.98560214668720      -1.23873331682129
H         5.24543590824867      -0.64534137661924      -3.59745512430035
H         4.66594341460912       0.87591055997123      -4.28975142068589
H         5.86757424865963       0.91387669977905      -2.95214108809890
