40
C12H22F3NO2 optimized with DFTB in AMS.
N        -1.60836282184840       0.31312463756281      -0.42999116159233
C        -2.08847308333560      -1.06719135254638      -0.76688788152398
C        -2.69907761588921       0.84680007935218       0.44643497602179
C        -0.31850560571880       0.28033018483224       0.34826388746361
C        -2.74189910492261      -1.58589044817738       0.50867118834355
C        -3.12977789776059      -0.33400176308232       1.31324819530019
C        -1.46187426230342       1.14582365816884      -1.64994771094130
C         0.90713942731154      -0.09259262882842      -0.48220824729614
C         2.07462570421367      -0.46219072385175       0.43920767298059
C         3.25326395075222      -0.98471804504699      -0.38898565296633
C         4.42724112216636      -1.38087704148016       0.50334397505270
H        -1.25398929348469      -1.68369307069925      -1.11453921001054
H        -2.81640456861040      -0.96704785481045      -1.57379717584557
H        -3.51461168152513       1.17019210403382      -0.20466859568187
H        -2.33225980789848       1.70159833021161       1.01538507885971
H        -0.45907604911394      -0.44024535655044       1.15679123132375
H        -0.19001132856305       1.27402376206049       0.78787190383932
H        -2.04923298825835      -2.21031420048550       1.07621417932539
H        -3.61585594760856      -2.19060464440880       0.26179635382084
H        -4.20385027718415      -0.28908905787155       1.50050080249583
H        -2.61615102710781      -0.31482112922348       2.27664027346977
H        -0.74905217688034       0.67201405032053      -2.31900235379004
H        -2.42766489311294       1.21668353179914      -2.14598593862870
H        -1.11368926607993       2.13601291431773      -1.36105138528215
H         0.68733307586850      -0.95095119230626      -1.12064022667131
H         1.19744560959557       0.74396259364468      -1.12252904227369
H         1.75178094001279      -1.23941233006672       1.14063986193491
H         2.38235678786165       0.41189600016201       1.02438196768775
H         3.57348551826786      -0.21058975436893      -1.09389159626884
H         2.92405006582167      -1.85242320082698      -0.96878134076872
H         4.77884244105507      -0.52381018484256       1.08027116701479
H         5.25048864277286      -1.74899547132554      -0.10873500584900
H         4.13129608143341      -2.16886187648857       1.19726592743363
C         0.19538023192231      -2.91478336746572      -3.16253910472438
O         0.12508890947606      -2.76776676409221      -1.93944305524081
O         0.50263737605905      -3.81805148544144      -3.89870533919676
C        -0.25081193095925      -1.51339375830608      -3.93788188854576
F         0.52979398438519      -0.46211834660258      -3.54778417978750
F        -1.51946580228984      -1.13721405034544      -3.57558351931306
F        -0.23046826272031      -1.52793051642423      -5.26937569276935
