44
C12H24F3NO3S optimized with ADF in AMS.
N        -1.18867587998773       0.11506663818167      -0.07598791253512
C        -1.40705355772876      -0.91510466866768      -1.17521665424315
C        -2.33675085460917      -0.16957875963234       0.86534989688443
C         0.12868009987798      -0.08135008371330       0.63058338346880
C        -2.92730625786138      -1.00782768089246      -1.34079231210222
C        -3.53457504910764      -0.40992111152428      -0.04474186713782
C        -1.30450138930806       1.50488281031070      -0.68937939921752
C         1.34787113502389       0.08124220780025      -0.25593896321497
C        -1.18772850136106       2.64968184741708       0.29109025815141
C         2.63071749611332      -0.17308036428189       0.53763596615663
C         3.87442471536880      -0.06708786420649      -0.34389587175896
C         5.16870228306636      -0.31579714265109       0.42404721789491
H        -0.91266583046968      -0.57449647809510      -2.09399645019731
H        -0.96604122908333      -1.85351528859114      -0.80675861529629
H        -2.06093138883134      -1.08391366829077       1.41316382154441
H        -2.44085668084721       0.65684492183615       1.57876080855360
H         0.14590523867037       0.62837465723895       1.47198891984485
H         0.09188313309440      -1.09934258166389       1.05300894774478
H        -3.22944687319645      -0.44208510350855      -2.23270727823121
H        -3.22320490397187      -2.05575527925320      -1.48649248355084
H        -4.25445031863314      -1.08426681327249       0.44015500155799
H        -4.06198001543493       0.53235419299699      -0.25324830513913
H        -2.26042925322231       1.52304902110226      -1.22723794835827
H        -0.54256408864395       1.58352348823326      -1.47653325184746
H         1.38227677371679       1.09168138092066      -0.69469692988892
H         1.29561418138800      -0.62413213119195      -1.10089498611931
H        -1.99596570668858       2.67730325427767       1.03756045108497
H        -0.21739343863068       2.67115189949778       0.80827448651014
H        -1.25392437816731       3.57384346387993      -0.30241998418166
H         2.59360489817314      -1.17821779211598       0.99970101244732
H         2.70620182399001       0.55167763630830       1.37047608885065
H         3.78497539859723      -0.78979104777074      -1.17460525859972
H         3.89878228721811       0.93389029784433      -0.81038411305105
H         6.04567781697803      -0.23417296234358      -0.23515602497179
H         5.29277694327159       0.41461928341559       1.23976596064095
H         5.17682774954613      -1.32330599940383       0.87130703361319
S        -0.85559892618263       1.69153753172980      -4.29183489049322
O        -1.81029386380762       0.71389605814327      -3.71303075252109
O        -0.25996301462461       2.60137222356153      -3.28675372964749
O        -1.23575740293619       2.28459266777295      -5.57025750653589
C         0.60550277188964       0.58698885744740      -4.72637830294101
F         0.25919072744172      -0.39713303499494      -5.59584171319498
F         1.10165219106672      -0.03666988074782      -3.59527365245587
F         1.63044648864340       1.28752866569697      -5.27111868721678
