59
C17H34F3NO3S optimized with DFTB in AMS.
N         0.06935038231748       1.84027875422952      -0.55100937676783
C        -0.59883469613170       2.67054250368218      -1.60783671212936
C         0.84308113465198       2.84029759552401       0.27608491251564
C        -0.94039758731877       1.16807360036256       0.33165552942479
C         0.98764975996628       0.85366104003345      -1.21255541208093
C        -0.97337948355911       3.96624093867054      -0.90903382287490
C         0.19663692271508       4.20816327116488       0.04681388190403
C        -1.77330222569709       0.07921024024630      -0.34324346570612
C         1.78517319592426      -0.00198869695343      -0.23351031764486
C        -2.83746261331728      -0.42677642104093       0.63835345747073
C         2.87490655847985      -0.75692965985821      -1.00533144124830
C        -3.67980175846068      -1.53985700000143       0.00795901732477
C         3.69844314985817      -1.64346157885566      -0.06852918434951
C        -4.74548855996832      -2.04824862705014       0.98410408617934
C         4.80628755545018      -2.37110432621765      -0.83641984050765
C        -5.58556932559773      -3.16047749944312       0.35920133799383
C         5.64144250124079      -3.25181227378718       0.09124382227734
H         0.14632694943138       2.86548905791689      -2.38180563868607
H        -1.44334515575958       2.13068438722487      -2.03289857340350
H         0.81765269682766       2.53072590682376       1.32139740232932
H         1.87630114109097       2.83480208796816      -0.07221338046494
H        -0.39316279908833       0.73616711562388       1.17275506994516
H        -1.59531633976814       1.95291664503154       0.71800114685320
H         0.38019891004680       0.23223584319457      -1.87412627151351
H         1.67494365558130       1.43820132370015      -1.82390037991382
H        -1.07592287066500       4.77379771096607      -1.63465489455577
H        -1.91740855806756       3.86586317606615      -0.36632307358681
H        -0.13759659928282       4.65384818478893       0.98512696046974
H         0.92678331042332       4.87233591754445      -0.41992225417545
H        -2.26616752463194       0.46464894194883      -1.23934313033862
H        -1.13620583434193      -0.75744425326505      -0.64001319244096
H         2.26169102504033       0.63565822289936       0.51478815027298
H         1.13368562913908      -0.71386311674548       0.28312364150180
H        -2.34752776859694      -0.80426928132659       1.54217022025983
H        -3.48729197687772       0.40456894296962       0.93194260403168
H         3.53148585336798      -0.02765156728852      -1.48864537840439
H         2.41287746281497      -1.36997501232848      -1.78660326276387
H        -4.16391421135224      -1.16016601303812      -0.89823706782255
H        -3.02596324580806      -2.36832963884960      -0.28480607236122
H         4.14520781249089      -1.02397665660193       0.71644516140536
H         3.04341849744222      -2.37673710208905       0.41632226747763
H        -5.39768279284329      -1.21778444290467       1.27489065534766
H        -4.25839952682419      -2.42412653811921       1.89017721822640
H         4.35913422614032      -2.99014773663749      -1.62178278841933
H         5.45510059993520      -1.63399290715370      -1.32017057856073
H        -6.09463801171883      -2.79867428169689      -0.53511453151019
H        -6.33585729760235      -3.50538563245420       1.07070193188291
H        -4.95480128304481      -4.00598447480315       0.08161982932040
H         5.01538939064251      -4.00659801092802       0.57000489452286
H         6.42231246566401      -3.75788929373629      -0.47684944128072
H         6.11293806779320      -2.64871381967856       0.86843728531507
S         3.48206763429197       3.39291448552280      -2.14192181599850
O         4.45303885974972       4.45100773472007      -2.14026718228805
O         2.09041448404455       3.81612218672080      -2.29974542864546
O         3.64567806885742       2.38139325801464      -1.10112510880478
C         3.77715922850090       2.42222022822042      -3.69433820232059
F         4.93189788656621       1.77105709360020      -3.66151133337545
F         3.75046905809295       3.18442081793954      -4.77765847943947
F         2.79884945264439       1.50694420573364      -3.81366258446822
