56
C16H19F18N2P optimized with ADF in AMS.
N         2.70899925837173      -0.58945692653518       1.43850324384311
N         3.72258911592415       1.32280505415024       1.28456489692501
C         0.68577642293399      -1.91246732119849       0.87396746883086
C         0.24205372961667      -1.02543581025600      -0.28613504003132
C         2.19455792694135      -1.92140749798286       1.08598622029240
C        -1.26976557435855      -1.02851983674363      -0.50262280059837
C        -1.69916825558845      -0.13898522332132      -1.66822656342251
C         3.31401731967814       0.25122103003843       0.59385687337526
C         2.73714011791723      -0.04593758899354       2.70297152986632
C        -3.21076367511681      -0.11396019808824      -1.87976882611531
C         3.37389881048447       1.15607800191338       2.60986720438490
C         4.52269223370616       2.41981947932506       0.74962501348767
H         0.17819685992462      -1.60058117046129       1.80491352908590
H         0.38252814009518      -2.95721522997516       0.68666271786366
H         0.74518777525580      -1.36037004228862      -1.21308666870036
H         0.56924045089885       0.01545841408253      -0.10549546447621
H         2.73592262264669      -2.23599481643312       0.18348853813611
H         2.50817210607964      -2.59744859901247       1.89393374406286
H        -1.61385121968593      -2.06388185470849      -0.68266260701853
H        -1.77127580331755      -0.68945442308672       0.42324187659799
H        -1.33315952633015       0.88858054201296      -1.48949247083142
H        -1.20127982813682      -0.49016700097617      -2.59020855915808
H         3.50872154608208       0.06007616549153      -0.45319591503618
H         2.34768828639171      -0.57761082962360       3.56171398211599
H         3.64361925122232       1.88050605458191       3.36785457303736
H        -3.72865211220829       0.26912368149806      -0.98617465387388
H        -3.48551306706542       0.52970948182063      -2.72975488373280
H        -3.59779074457905      -1.12460866065293      -2.08406548676939
H         5.51822300901767       2.38921556512029       1.20938069407612
H         4.62862595288620       2.28327115640258      -0.33112188546608
H         4.02081820599923       3.37301018327626       0.95837717304592
P         6.57553404197954      -2.41925212105358       0.95002641593496
F         5.73665588930716      -3.86434231440335       0.99388038242621
F         8.03709718408959      -3.13256981203181       1.20401644293589
F         5.13083331378649      -1.58275047454640       0.67148548917102
C         6.73225016277054      -2.81874003371238      -0.97590136811951
C         6.15569739530008      -2.49702071063266       2.95145658286231
C         7.46887184659644      -0.58582352253602       0.99781665034833
C         5.45557982325617      -2.73894351250866      -1.87271326333951
C         6.50810462506658      -1.50717025012121       4.11127146037277
C         7.70892984843492       0.40414814794193      -0.19283820691473
F         7.17528747335953      -4.11231541943064      -1.11999403670911
F         7.66156341136401      -2.02317561534515      -1.61410565629243
F         6.69882179726230      -3.68590789937126       3.37306470103145
F         4.76893511451995      -2.62207737791447       3.07329515746849
F         8.69832441543991      -0.67349116067610       1.59885987668628
F         6.65380716492312       0.16929610820822       1.84498075961003
F         5.75001646891726      -3.18287954439771      -3.12241996759822
F         4.99282805234180      -1.45970796084027      -2.00872129007826
F         4.43590097986681      -3.49416886777896      -1.39706049048412
F         6.29488766931534      -2.12856843614617       5.30713185892706
F         7.79617091962643      -1.11208833906336       4.08100144553838
F         5.70695571186966      -0.40383906616576       4.11447516045214
F         8.80317242997603       0.10600952502671      -0.91258523249521
F         7.90318369800208       1.66838910466371       0.30683959435542
F         6.62890393704141       0.48035445175932      -1.01831483378663
