34
C10H18F3NO2 optimized with DFTB in AMS.
N        -0.45100360771323       0.01053702045457      -0.13706447456507
C        -1.46044575935628       0.36481803649824      -1.20513693582620
C        -0.89954116017822      -1.31551196328454       0.40513952089043
C        -2.69436979721867      -0.50275632286135      -0.95242227548214
C        -2.41648495457048      -1.25452892076344       0.35039844861182
C         0.91417248191074      -0.07366563260748      -0.75424678337137
C        -0.48369915407235       1.03969598402591       0.93239592541488
C         2.02261133197321      -0.46509389883649       0.21830002327295
C         3.32707157961128      -0.63770970751468      -0.56151787666376
H        -1.01792723041113       0.13135927195893      -2.17337313497637
H        -1.66422460569099       1.43520406669883      -1.14736270766187
H        -0.49687378285143      -1.46052998481868       1.40748397201121
H        -0.52850658070985      -2.08667761104496      -0.27320373124421
H        -2.79682726431004      -1.21617532178247      -1.77314585490987
H        -3.60113481771376       0.10001468937883      -0.88678122570875
H        -2.82327829567676      -0.71841269559298       1.21263200050355
H        -2.84037115151859      -2.25911825104810       0.33470551482653
H         1.12171780261481       0.89967606273321      -1.20599271997352
H         0.83792467718291      -0.82284532845893      -1.54546248256612
H        -0.11997486604996       1.98197758280682       0.52614132856947
H        -1.50728247575405       1.15937439835007       1.28113060464957
H         0.14844969889607       0.72592050905684       1.76050032207278
H         2.15772847520641       0.30162528413762       0.98729913614145
H         1.77077483895806      -1.40637534264479       0.71442396176965
H         4.12325615550910      -0.94459445600509       0.11584836053651
H         3.20868013203700      -1.39658954142940      -1.33382278241197
H         3.61295422870206       0.30073844441177      -1.03713014304007
C        -0.30510066934251      -2.45609490721093      -3.52854597555460
O        -0.61019053388526      -3.36158191520949      -4.26515849217552
O        -0.66513358841391      -2.10871194058531      -2.39210186956961
C         0.82935430474217      -1.41489698152969      -4.09414833746825
F         0.42820398704108      -0.12686234964548      -3.87942521627474
F         1.14397196922272      -1.51062634613296      -5.38464622158218
F         1.98880662182983      -1.53702863640435      -3.39167526654460
