42
C12H28ClN optimized with ForceField in AMS.
N         0.01190374522191      -0.00464177532296       0.00151353049416
C        -0.87690122607018       0.64372341530830       1.03027948781275
C        -0.79639547340706      -0.67170580980261      -1.08000937863803
C         0.85212437301342      -1.05163572620212       0.68446916617160
C         0.86904399925918       1.06108046158259      -0.62923195280211
C        -1.95863665966599      -0.26868687170660       1.66397323530692
C        -1.84487357431115       0.22147393696989      -1.79094999062853
C         1.95268644303679      -1.71058273129815      -0.18732477505852
C         1.90558167086248       1.73786625237524       0.30445720081794
C        -2.78885075138575       0.50538471647487       2.68588024618151
C        -2.59715732493797      -0.57228388900017      -2.85721089799609
C         2.73551163505032      -2.74578271522981       0.61724591323401
C         2.71121018921209       2.79037267803695      -0.45426882130742
H        -1.38192672559453       1.53794684500614       0.60110040149695
H        -0.26408531331570       1.02736065712045       1.87407936368268
H        -1.31434413197142      -1.57219964677305      -0.68034314647420
H        -0.12349907616351      -1.04835117703651      -1.87969765125726
H         0.20690549709589      -1.88133217568213       1.04458087629249
H         1.33134421168053      -0.63237293376404       1.59739844956235
H         0.22915816174546       1.88001632657433      -1.02244502131776
H         1.40715755909777       0.65476356729099      -1.51474340427783
H        -2.65519579722757      -0.66386008206181       0.89882835273143
H        -1.49457113209279      -1.12337297325636       2.19423159739245
H        -2.59257802534707       0.61578205653256      -1.07576527566516
H        -1.35651405648321       1.07635684541839      -2.29887302647463
H         1.50863628349963      -2.23648281193037      -1.05507883212377
H         2.67661145887287      -0.96116139491026      -0.56272755468702
H         1.40291549371051       2.25023185361893       1.14821928711843
H         2.62310451348908       1.00173375689361       0.71649140516204
H        -3.55134223446670      -0.16660202644181       3.13365113458647
H        -2.13831241277635       0.89211697295510       3.49931126403763
H        -3.30940315160370       1.35606165271132       2.19664748623934
H        -3.31686322874093       0.09242992161163      -3.38030424706930
H        -1.88719650295246      -0.98229359367108      -3.60706360421120
H        -3.16001343642353      -1.40852473402468      -2.39057104954142
H         3.51225714892998      -3.20921126769135      -0.02735971554152
H         3.23517339145385      -2.26450119925761       1.48464192800284
H         2.05639475582940      -3.54597632023995       0.98182414691941
H         3.44451261500462       3.26523588055058       0.23141429654887
H         3.26465510902408       2.32136125649684      -1.29554069023067
H         2.03799764536146       3.57939659511977      -0.85248573264642
Cl       -5.57991481701374       1.43422209765494      -1.53768461404343
