22
C8H11NO2 optimized with DFTB in AMS.
N        -1.17938253518048      -0.75653904935158      -0.18612620773153
C        -1.37684178726485       0.17841045216378      -1.25655714068499
C        -0.38688800411747      -0.44458378352525       0.87815901497791
C        -2.02380774949732      -1.94560498799742      -0.17568890618913
C        -0.19834954450575       1.07921758915870      -1.42424626593820
C         0.50625139573242       0.57158928514604       0.82384651890731
C         0.64425079132883       1.30066243074522      -0.40212197984022
H        -1.64763029970892      -0.36282028305180      -2.17415424740306
H        -0.46906188703063      -1.10095840557558       1.73814934655874
H        -1.88201046336539      -2.47650965140302       0.76485069736988
H        -3.07348435392922      -1.66863605945346      -0.28304442362429
H        -1.74421365009496      -2.60009037192164      -1.00530032438799
H        -0.11476489471689       1.58899948955331      -2.37530106672316
H         1.14727381244402       0.78908797161503       1.66650786441811
H         1.47042118952612       1.99563308839703      -0.50466478170685
C        -4.79825739502435       1.71939887627037      -1.04989739087803
C        -3.73656819445224       0.70486251446234      -1.41255821423312
O        -3.95549868258867      -0.28385873612995      -2.06589901047363
O        -2.54864219745995       1.04277561579288      -0.93369329712494
H        -5.16995768660631       2.17234375691657      -1.96787853084102
H        -5.62527248149016       1.20630003645799      -0.56265463216705
H        -4.39454728869778       2.48814949533045      -0.39635174028474
