34
C12H19NO2 optimized with ADF in AMS.
N         2.25612659870191       0.35460108446148       0.20060414730624
C        -0.19013830513842       0.02872094080856       0.16916632688335
C        -1.45204185741069      -0.11717614959659      -0.67707872474962
C         1.07362489688611       0.20627762047963      -0.66579246423461
C        -2.70423648138223      -0.28796302824412       0.18409505728415
C        -3.98162310719942      -0.43217031384788      -0.63858313455658
C         2.90679915315231      -0.74452125577919       0.61774476178986
C         2.64297295345259       1.59344757645604       0.58240531600813
C         4.03750450684611      -0.64599941087918       1.43496206389655
C         3.64212455827292       1.73044780581946       1.53782077181588
C         4.29788139179665       0.61425741114097       2.01926673250848
H        -0.06879116118339      -0.86014955970895       0.81387018488624
H        -0.29087234974976       0.89583533382527       0.84640041369785
H        -1.35091062638530      -0.98662405797101      -1.35322391895123
H        -1.57139201984919       0.77093695894006      -1.32561219029083
H         1.25307573043199      -0.65445650877076      -1.32709890435929
H         1.02097296512967       1.10341831145493      -1.30005090088255
H        -2.79473587366771       0.57988607620000       0.86217811474044
H        -2.57794699223436      -1.17450791831687       0.83204058306304
H        -4.14415622726799       0.45208105252704      -1.27520430538344
H        -4.86318728315432      -0.54555072444638       0.01144601062943
H        -3.93185529353326      -1.31481831978140      -1.29571276276191
H         2.54715791213935      -1.69349780538675       0.22802419359147
H         2.09805895505320       2.42761586228567       0.15042677932611
H         4.44831294547807      -1.55697555284311       1.86086453913378
H         3.88952941822830       2.73020118065624       1.89558428798994
H         5.06906685179451       0.70905003273190       2.78356182553256
C         6.90028340816117      -0.26712667678893      -1.80695632135440
C         5.66781187159465      -0.17267286979085      -0.90047689488754
O         5.70926290139563      -0.97702002417615       0.10997796295959
O         4.75848087361786       0.63534627354611      -1.18845405399654
H         7.81414103935018      -0.11271594533057      -1.21384358557544
H         6.96375324950451      -1.27568690524562      -2.24371979512315
H         6.84086082696835       0.47989738317096      -2.60877764453597
