40
C10H15F6N3O4S2 optimized with ADF in AMS.
N        -0.77789280433800      -1.18983816238594       0.09286535216986
N         1.12778943724428      -0.86137842380677       1.07329868721029
C        -2.22624185620638      -1.33085847712187      -0.10858572687599
C        -2.74071418454781      -0.36920699890220      -1.17215406117568
C        -0.19871159913649      -0.78482164072665       1.22914039925155
C         0.20709060254308      -1.54406905787849      -0.80963639129613
C         2.10380943531338      -0.56043464908203       2.12533184644109
C         1.40394260313467      -1.34117551678906      -0.18952203121170
C        -2.50958568927366       1.09230361058870      -0.80226962207718
C         2.41515373609526       0.92632303662193       2.18497647016955
H        -2.69265172457032      -1.14077055473515       0.86877478599390
H        -2.41703723457323      -2.38516355543120      -0.36174286848740
H        -2.26834579495416      -0.59872996470966      -2.14377766386708
H        -3.81799563725928      -0.57208092204613      -1.29583864617701
H        -0.73298478366521      -0.52030946611729       2.13544640110002
H        -0.02681276777690      -1.94187541317988      -1.78832339459604
H         1.67752709292950      -0.94495327756937       3.06388606618838
H         2.99210975385777      -1.16915193519507       1.90905229541271
H         2.41724677362476      -1.53670279603021      -0.51576320652433
H        -1.43479586192065       1.31124154289617      -0.70109881274159
H        -2.99862268288984       1.33678843170311       0.15431358474666
H        -2.91662535315751       1.76455359805013      -1.57188454545580
H         2.81361489423770       1.28528443652899       1.22408210472558
H         3.16616749571895       1.11708734816942       2.96483042150449
H         1.51398659823036       1.50907310617128       2.42785000725179
N        -0.32255164404427      -3.00236122184171       2.77824366178607
S        -1.88671067464800      -3.04470943660864       3.13774593119446
S         0.66535886631887      -4.25422034750098       2.52298199827509
C        -2.05834131945943      -3.66521751528666       4.91978924747308
C         0.00803901546331      -5.21097700262696       1.02132453209886
O        -2.29891146593553      -1.63567724816303       3.22710055857193
O        -2.69047110580403      -3.96369614771354       2.33979888565238
O         0.68949814053499      -5.24452793310438       3.58813757472598
O         1.91040241380328      -3.66797101150108       2.02768463365163
F        -3.29490602330683      -3.33599308035830       5.36655706745253
F        -1.13782992798921      -3.07911505084161       5.71933763504541
F        -1.91499193309108      -5.00068227332820       4.98562870689251
F        -0.95714224456725      -6.07872866706064       1.36568304080271
F         1.03766577915448      -5.90192121704731       0.47385098115802
F        -0.48002342088956      -4.36537132013972       0.06891694333941
