48
C12H26F2N2O4S2 optimized with ForceField in AMS.
N        -1.62652910469904      -0.28034990878357      -0.18392781352160
C        -1.90890086568390       1.13169129720598       0.21678940263047
C        -2.63846819979212      -1.20360280739674       0.42062975639930
C        -0.29041453893390      -0.70473696349906       0.35318191713736
C        -3.35411167090151       1.57592470425798      -0.07155863338959
C        -4.10303602197836      -0.80146692821877       0.16600947673148
C        -4.35660878186197       0.63924226767954       0.59248684066574
C        -1.63510887411737      -0.42438276237794      -1.66538634048105
C         0.93464472636012       0.07128319300564      -0.19207121701000
C         2.23127375178553      -0.45938821727828       0.43523386268661
C         3.46051817568257       0.26637121980712      -0.12608021207447
C         4.75070518575685      -0.28411264738013       0.49293998254396
C         5.98094703058577       0.41944514991230      -0.07254246469328
H        -1.23925357103720       1.83734368559135      -0.32024116634104
H        -1.71995827948936       1.26824014626980       1.30638307159162
H        -2.50360251597571      -1.25569368095925       1.52643546126329
H        -2.49632056735705      -2.23609157569962       0.03246454167951
H        -0.28072776714576      -0.60686261366288       1.46375164168297
H        -0.12546959314697      -1.78633245936202       0.13724251746983
H        -3.50412938671223       2.60232917141734       0.32760978307259
H        -3.53875727183648       1.61877030958421      -1.16590681046831
H        -4.37834230325069      -0.94193220116726      -0.89954721803870
H        -4.76608700640741      -1.47054274757025       0.75657985793037
H        -4.27170478803961       0.72253380442837       1.69848935502760
H        -5.38823202914138       0.93404532577962       0.30206236079756
H        -0.99920305938003       0.34367263690961      -2.15392537359358
H        -1.27296009571791      -1.43127481198229      -1.97113495840726
H        -2.64635455997631      -0.29419624469728      -2.09626847776705
H         1.01209317493348      -0.05225658413829      -1.29167165915544
H         0.84916151562310       1.15099374075667       0.04740828385659
H         2.19282951932667      -0.31700385550595       1.53776446002858
H         2.32349645335386      -1.54764159858887       0.22379094555927
H         3.37983788809227       1.35362245857937       0.09453882500000
H         3.49617739132080       0.13133515457635      -1.22971641481682
H         4.83325149351427      -1.37282025119543       0.28251782148605
H         4.72906659391753      -0.13972124048670       1.59513411930079
H         6.04261037358902       0.26605001870084      -1.17107953023816
H         5.93773643698219       1.50789574940489       0.14492844277088
H         6.89619285666518      -0.00034238813179       0.39589431229266
N        -3.86825558420177      -6.63253642938002       1.64266335640750
S        -4.07950757731217      -8.15023349486338       2.21463970130639
S        -2.38704458639417      -6.08351373651336       1.21810079071813
F        -3.49642649148520      -8.23367198400114       3.78127397386892
F        -1.95339164824025      -6.75041498810365      -0.25447397118317
O        -5.54256014139150      -8.49132217110834       2.20834573001456
O        -3.32512202229987      -9.13082699464056       1.36095678022324
O        -1.37217366906875      -6.48194662774811       2.25272408742591
O        -2.42367059011325      -4.58798734282608       1.09527933920977
