38
C10H22BF4N optimized with ForceField in AMS.
N        -0.51371668466910       0.01025563830072       0.00110435299190
C        -1.44039646791305      -0.56854734947185      -1.02025218189581
C        -1.40739694215513       0.61512650842221       1.03658370710402
C        -2.84484747399298      -0.08181331791034      -0.71972825419723
C        -2.82826297295529       0.16157076463466       0.76258784326294
C         0.33038530388644       1.07265386536519      -0.63784451919282
C         0.30841424379835      -1.07628607099591       0.62780155179067
C         1.35466040479137       1.73410354270162       0.31344532178387
C         1.29969515233961      -1.76878609338877      -0.33739742073438
C         2.05844061737668       2.90479409015645      -0.36548830991265
C         1.97348503224372      -2.96020918197656       0.33702164634258
H        -1.16607812516290      -0.30285298328728      -2.06680334332474
H        -1.47049696818658      -1.68163352679779      -0.98058988786310
H        -1.12056193003549       0.34699416708791       2.07926982712038
H        -1.41111917424716       1.72843490669690       0.99260416921939
H        -3.03747014445478       0.87240695693288      -1.25873626227416
H        -3.61426204412784      -0.83337242898304      -1.00169959660324
H        -3.03311667042861      -0.78806077985768       1.30513987138345
H        -3.57454448879176       0.93087462142745       1.05839739118438
H         0.88186370754553       0.66186030804828      -1.51220677871747
H        -0.32814700086251       1.86939249459824      -1.05656464960836
H         0.88383253187094      -0.68213720430452       1.49424128744433
H        -0.36727742905654      -1.85296142391960       1.05695504808723
H         0.85674628525532       2.11060909746870       1.23006579969469
H         2.13319323394600       1.00314034175687       0.61170671754695
H         2.09744489249556      -1.06336760611104      -0.64869862835732
H         0.78023425460411      -2.12966458388679      -1.24922740103068
H         2.61359611760562       2.55197308924828      -1.26037329715083
H         1.32011185317454       3.67607214393641      -0.67115065332835
H         2.78042369032477       3.36500274478956       0.34172089997116
H         2.54368395507105      -2.62428895214716       1.22916198808400
H         1.21444669626139      -3.70924052094300       0.64755239482089
H         2.67714758806889      -3.44223907332571      -0.37388981231539
B         2.38602696643682       0.77496424827261       4.10261310355294
F         3.07837567587278       1.19899062606098       5.26783813204803
F         1.32178052966224       1.67516894306581       3.83187786430159
F         1.86189564504515      -0.52838861604895       4.31060151804468
F         3.28323488856285       0.75410274668423       3.00232467362646
