41
C11H22F3NO3S optimized with ADF in AMS.
N        -0.02112738396465      -0.33196988767061      -0.17042252836565
C        -1.44334174214620      -0.29832003380834      -0.68020661340744
C        -0.14138015824282       0.39585707390435       1.16207015833441
C         0.90445824724683       0.38965422947420      -1.11787928797247
C        -2.30743862137458      -0.58345130673107       0.54600931933285
C        -1.46869987937692      -0.08211229391162       1.75086974347284
C         0.44606952282347      -1.75792812250506       0.09464766980039
C         2.34937508963353       0.44298156351793      -0.65597466104701
C         0.58448121296726      -2.62079620563725      -1.13926410165319
C         3.18459335656868       1.33352845975121      -1.57613201459395
C         4.62881392956336       1.43619800128673      -1.08942383260839
H        -1.55595944763822      -1.00514359403127      -1.51130875544594
H        -1.60701485315401       0.72363257396269      -1.05625017174958
H         0.73791018972320       0.15044724643111       1.77543774240493
H        -0.15863027291771       1.46880393294781       0.91533681360683
H         0.80907878539858      -0.10685496499396      -2.09622478859662
H         0.49150423529581       1.40723496551623      -1.21754007213864
H        -3.27247623335228      -0.06443326570637       0.45507137147033
H        -2.52241040502252      -1.65831935608754       0.63486850133307
H        -1.27639815255342      -0.88358115138035       2.47854115448379
H        -1.96257489510755       0.74466681805309       2.28120552751248
H         1.39666340497229      -1.65093616115122       0.63507335451557
H        -0.25940850620082      -2.18507440960317       0.81840795829152
H         2.40899106092757       0.81783207316390       0.37788496713024
H         2.78799611242261      -0.56724307110430      -0.62975027681604
H         0.90587095701777      -3.61630142223565      -0.79619434155811
H         1.35726681176066      -2.25293949506510      -1.82991950301277
H        -0.35705169510416      -2.75436982234788      -1.69256613847723
H         3.16155970594895       0.93268526741345      -2.60615644131521
H         2.73449493829120       2.34236595964979      -1.62132215776532
H         5.10157355506138       0.44285178873994      -1.05021549948245
H         4.66739724519710       1.85919843959006      -0.07376357857850
H         5.23063214609242       2.07665449179399      -1.75131253278691
S         2.05943061035114      -1.76391117058248       3.34324469023181
O         0.61240741387498      -2.05119465184936       3.23182433343104
O         2.58041014380537      -1.49811280711193       4.68096342396921
O         2.56378866745585      -0.87336771594193       2.26116491893334
C         2.83420694091587      -3.41547205801599       2.87493312433115
F         2.45648630721832      -3.79588426000799       1.60476909825433
F         2.44847870532616      -4.40451358117638       3.71921631219704
F         4.19043850429547      -3.35807523823968       2.88514687863425
