24
C6H12F3NO2 optimized with DFTB in AMS.
N         0.32098619885383       0.03575294762251       0.38591962632475
C        -0.83240445583086      -0.81402164622191      -0.00511176636268
C         0.27164687888515       0.29505681030254       1.85132812118245
C         0.25672831981515       1.32873156601002      -0.34645358875028
C         1.59021699185575      -0.66390524973690       0.04162887127124
H        -0.77629297547704      -1.75502065901437       0.53870167436422
H        -1.75693915843880      -0.29626318052600       0.24411192675685
H        -0.78949515259534      -1.00192918139013      -1.07647388786324
H         1.12771391901866       0.91155536462726       2.12312356769937
H        -0.66035637307481       0.80370216962935       2.09025618266044
H         0.33206946993620      -0.65428281523052       2.37798362014834
H         1.10578056363898       1.93956856136589      -0.04862063612073
H         0.29590540542133       1.13164838879301      -1.41604795154516
H        -0.67337702146340       1.83351074305750      -0.09251627690381
H         2.42368021166449      -0.02331866706088       0.32740950921051
H         1.64223201643853      -1.59329268921989       0.60415921995796
H         1.60337276574808      -0.86276752940048      -1.02820885032622
C         3.93171743092822       1.31734905966160       2.32194073113185
O         4.94556178471165       1.56850925115181       2.92124577450618
O         3.15464193972883       0.36026059235255       2.26655312822761
C         3.39745280091636       2.51828754802842       1.30288458635811
F         3.28103291878644       2.03989866350352       0.02336647407604
F         4.10816750522786       3.64001483783963       1.22595416286376
F         2.11922574270472       2.88570864065546       1.63083284663242
