35
C11H20N2O2 optimized with DFTB in AMS.
N         0.27589152946725      -0.98288735008264       0.52502811754959
N        -1.26089555240183       0.48572478771762       0.69783994074204
C         1.55596648668744      -1.65967953870434       0.67283861619902
C         2.48170460202460      -1.30961661589016      -0.49733416912051
C         2.87537801790205       0.17036771396385      -0.49418966851918
C        -0.06509815916529       0.13284118608966       1.17894846749297
C        -0.69733669447583      -1.33087243039181      -0.37911292998628
C        -1.67382295865985      -0.39553133165705      -0.26937921515898
C        -1.95445090045039       1.71418842937697       1.06202958656304
C         3.76858788515187       0.50861864311795      -1.68509867814153
C        -1.65695128340058       2.79754598820220       0.03012060176099
H         1.99366099997735      -1.33682595870776       1.62113755263806
H         1.37562006575381      -2.73829966015621       0.70739457283938
H         1.98119777761710      -1.56345277194474      -1.43756414649145
H         3.37739397036370      -1.93333571510011      -0.41406786522668
H         1.97671157452616       0.79283877962770      -0.52678333661420
H         3.40299373957584       0.40159571407760       0.43613890713563
H         0.62350301930695       0.76405206423783       1.98469542593032
H        -0.62038627680904      -2.20199608722011      -1.00637345887977
H        -3.02696946120438       1.50384847574840       1.11839043137202
H        -1.59361271298305       2.01601554066830       2.04849586629083
H        -2.61356605053506      -0.29237998062411      -0.78368350740769
H         3.25533058355539       0.29155777569403      -2.62340344818883
H         4.69286628347588      -0.07098611564485      -1.65290429320571
H         4.02166395363584       1.56832297223933      -1.66455260037095
H        -0.58254280353058       2.97564768347447      -0.01065494997148
H        -2.16219940811715       3.71849146237451       0.31793506113669
H        -2.00648751013195       2.49110727534103      -0.95576260106434
C         2.65183882159265       3.55863865297017       2.64852597778233
C         1.74829836636103       2.49744335773867       2.00939883451049
O         1.39938284249135       2.62371930128845       0.83390318686505
O         1.42031553067437       1.53235867676690       2.77230416121661
H         3.58873604332534       3.09251065066668       2.95036685482566
H         2.84976811698610       4.36041601372486       1.94058128746527
H         2.16400598131300       3.95860905051676       3.53618818193159
