20
C6H11ClN2 optimized with DFTB in AMS.
N        -0.34416293259447       0.25896692544704      -0.43076020056959
N         1.79774249790574       0.00758134165904      -0.35079084910615
C        -1.76810168772580      -0.04401309841571      -0.33798033125932
C         0.63234202363269      -0.65027783894407      -0.36353568080696
C         0.20511650593761       1.51573490121277      -0.31668267615392
C         1.54888697915435       1.35538348094753      -0.26173501282649
C        -2.23603329713492       0.09344567385476       1.10734147487254
C         3.06036626983164      -0.64640210729087      -0.05872723914133
H        -2.30659349395375       0.64344734907478      -0.99758618291377
H        -1.91147360409413      -1.06732339087505      -0.69478550444839
H         0.51331523145585      -1.70317089247084      -0.54047064741245
H        -0.40054827792422       2.40453156932773      -0.29782649170034
H         2.34385197969634       2.07610243091073      -0.18267284770866
H        -1.63759377721390      -0.55184930881181       1.75035262553944
H        -3.28342123674260      -0.19712020350110       1.17378202952313
H        -2.12837014758737       1.12367425273397       1.44484569131483
H         3.25648169897271      -1.41477243657427      -0.80637626940615
H         3.85814405138309       0.09321437282314      -0.06323956694771
H         2.96622179248379      -1.10616371092207       0.92922600307154
Cl        0.67739148501735      -1.43655620148572       2.00515510167976
