49
C13H21F6N3O4S2 optimized with ForceField in AMS.
N        -1.28301488167757       1.30824962965762      -0.23861745510544
N        -2.66403238117623      -0.39537989875483       0.12913737635123
C         1.10283106108038       1.93800646010883      -0.21953900722653
C         1.57720012228569       0.48648102706033      -0.37746584879398
C        -0.27006073286713       2.15545023312746      -0.86594083822529
C         2.97870661604371       0.29508219177858       0.20524255469131
C         3.43137452332125      -1.16195995255003       0.06228554896094
C        -1.80618278144018       0.17228745218712      -0.74015701577780
C        -1.82251722697067       1.46026360509491       0.98787332675988
C        -2.68342814826247       0.40521481889863       1.21421357249702
C        -3.38064377184982      -1.65581530347639      -0.04500332334022
C         4.82686207607645      -1.35730123358182       0.64088250556976
C        -4.84001043709534      -1.38848946907748      -0.38569882601636
H         1.83355786069893       2.62033568081434      -0.70672241239365
H         1.05006464359881       2.20298326383548       0.85905388993677
H         1.58592548700455       0.21511106291363      -1.45644954624699
H         0.87490548355865      -0.19247458296038       0.15341776961309
H        -0.56496037202711       3.22200482455136      -0.76133553191823
H        -0.20488214230275       1.93096993420279      -1.95357320983446
H         2.97052896493765       0.57449561720061       1.28206078378251
H         3.69338410980887       0.95885271217763      -0.32981101099064
H         3.44432276105825      -1.44764764099200      -1.01245024629175
H         2.72308381168543      -1.83212038121074       0.59720668875143
H        -1.54536334590299      -0.24723688420267      -1.70405544572431
H        -1.59235633051945       2.26554743575898       1.67352105334882
H        -3.26170336268021       0.22400726532142       2.11101856133355
H        -2.92030016067134      -2.24504038959621      -0.86823866681927
H        -3.31487581781459      -2.25730796736885       0.88767927663104
H         4.82919432975106      -1.12531934938695       1.72711252743125
H         5.54870990266808      -0.69204511548186       0.12202365470526
H         5.14266634376444      -2.41233108793102       0.49967120439109
H        -5.32777620928991      -0.82512234529875       0.43752925821045
H        -5.37260678769779      -2.35197813169088      -0.52961281395346
H        -4.90521780623916      -0.79826554732886      -1.32459727636278
N        10.60095450406336      -0.33694394229195      -0.63215824738461
S        10.30238614305075      -1.46528527013145       0.51938339664487
S         9.87297535301497       1.13250518048712      -0.64419267232036
C         8.99769101003352      -2.53901561279607      -0.04090812278964
C        10.97808627505786       2.33425632206280       0.06708258167408
O        11.54077590469879      -2.28591535516575       0.74303286848121
O         9.89616337386494      -0.80981995814585       1.81013817714886
O         8.59033225314064       1.09950066793106       0.13982088632025
O         9.58052747824055       1.52783012301451      -2.06385964066529
F         8.72923117117653      -3.49045711191583       0.92505263966030
F         9.38667358660257      -3.16773169840840      -1.20819348092910
F         7.85968650621732      -1.79684943025274      -0.28176968405915
F        10.37439704348737       3.57763592834297       0.07094074162820
F        12.13880340587343       2.39194435548956      -0.68077279567014
F        11.28695083111997       1.97085350838002       1.36385551111627
