47
C13H25F6N2P optimized with ADF in AMS.
N         1.66092799101105       1.16806166726894      -0.39129677983182
N        -0.27581034880405       0.88995122190121      -1.32970858658187
C         3.10424136794771       1.03906242909457      -0.11661437724973
C        -1.32916624239672       0.33469690440822      -2.19812057774671
C         3.35574159123574       0.61623308555299       1.32760684887714
C        -1.84761024186698      -1.00232270569502      -1.67956748007587
C         2.79077361884777      -0.76279471783408       1.68165746988827
C        -2.47185902198569      -0.95425106625135      -0.28931083889693
C         1.03067053747033       0.60838302595771      -1.43108027781362
C         0.73411594211503       1.82235338823643       0.39801052628222
C        -0.48321919400155       1.64424645416957      -0.19137869726514
C         3.62252193686781      -1.92172013615932       1.13228795103548
C        -2.96121583857902      -2.33089649327507       0.16049386967785
C         3.04252560700591      -3.27956384329930       1.51668958065766
C        -3.59140089725799      -2.30599129848187       1.54979933474778
H         3.57418447134369       2.01101359955888      -0.33951103215726
H         3.48071015682057       0.28851754661547      -0.82654838939783
H        -0.88752617247337       0.21320896414735      -3.19678886063184
H        -2.12298119461012       1.09670140187728      -2.25052529307968
H         2.95902721521405       1.39137004854500       2.00789169605568
H         4.44993170384894       0.62051505595213       1.47623036653045
H        -2.59149120363592      -1.35794554164176      -2.41467777503963
H        -1.01771893599190      -1.72443569329427      -1.69481481491580
H         1.75397096736954      -0.85561571917288       1.30997522455378
H         2.73506161836402      -0.84684492262009       2.78187035791663
H        -3.31606308662354      -0.23657413311176      -0.26870355392869
H        -1.72731527672926      -0.59686101452519       0.44557726031011
H         1.49106474810647      -0.00224221643801      -2.20242740845183
H         1.01047299804343       2.34335850630412       1.30458318715306
H        -1.47125244956557       1.97584354678627       0.10158377600713
H         4.65579979431270      -1.82886152859438       1.51713384818151
H         3.67893021335409      -1.86247177191813       0.03368107520985
H        -3.69007590582627      -2.71451104337616      -0.57614259954262
H        -2.10618113964674      -3.02947426212215       0.14261413144274
H         2.02825383342254      -3.39049910891650       1.10609379505808
H         2.99755851622769      -3.39772814533470       2.61193685714495
H         3.64914221320964      -4.09879962272215       1.10324920036401
H        -4.46261762888479      -1.63163078531386       1.57691233307100
H        -2.86902887698366      -1.95342332101924       2.30390574879932
H        -3.93230122255335      -3.30753644950794       1.85566377595834
P         1.82201411748208      -2.75423196606417      -2.49728355848536
F         2.99873806272521      -1.54811497618224      -2.41908427271950
F         0.85657387032576      -1.65735996464161      -3.33824585307006
F         2.44160483850631      -3.28848090638758      -3.90656396507963
F         0.60727518797350      -3.85201750885218      -2.54049151085071
F         2.78307617036701      -3.75685824508606      -1.63478499985781
F         1.18626015999789      -2.13724481143709      -1.06296576755307
