30
C8H8F6N2O4S2 optimized with DFTB in AMS.
N        -0.67878362292039      -0.10267083370384      -0.35603747633972
C        -0.19642635683222       1.11660387219282      -0.06746363497657
C         0.10665558465081      -1.19035650217086      -0.30308201188173
C        -2.03899107447989      -0.22507550843357      -0.87528035681024
C         1.12025728162892       1.27437567876547       0.31446249209272
C         1.42927797473060      -1.08197181876726       0.06895369197404
C         1.95264092911230       0.16680521144470       0.37839301557050
H        -0.88090163347382       1.94985307823806      -0.15766542347906
H        -0.34129630151123      -2.13533122830825      -0.58234678105453
H        -2.44618908112470      -1.19653583892834      -0.60472894393834
H        -2.65607852895071       0.57447947774907      -0.47182738848530
H        -1.98466479638317      -0.13921521687046      -1.96705485117462
H         1.49005610540536       2.26859130868864       0.52894829346926
H         2.04831198910982      -1.96936632224642       0.08514027060988
H         2.99543726550592       0.27479124607181       0.64972086366237
N        -0.94529454758019      -0.06181866246325      -3.83655906511199
S         0.31902448221311       0.76318100230583      -3.30161649396951
S        -0.62894970047383      -1.37409976461397      -4.72140732015639
C         1.17265958325315       1.61802662697526      -4.74304060315530
C        -0.48975488554916      -2.76218434262245      -3.46651156593784
O        -0.23648878311631       1.85363292466735      -2.51621812557264
O         1.35152772693772      -0.02487201522669      -2.65170537128318
O         0.62814478981044      -1.35484725306202      -5.41686207575489
O        -1.82912650813139      -1.70825560005456      -5.43146425168599
F         1.49530484754577       2.84433206423860      -4.35940833656262
F         0.35833059451063       1.69187639691079      -5.77704382686929
F         2.26927104004925       0.97516508454398      -5.08005557254983
F        -0.65916605390397      -3.93755543241816      -4.03765867776138
F        -1.45253340857408      -2.60360006389914      -2.53967278739949
F         0.67027811734124      -2.76175958980314      -2.82182303416830
