35
C11H20N2O2 optimized with DFTB in AMS.
N         0.56143778105323      -1.24968660637303       0.15326460532206
N        -0.93565517081749      -0.22075329236377      -1.00536244987037
C         1.44299313651106      -1.62034025992680       1.25301387594702
C         2.81214943655970      -0.95363147582898       1.08669858106016
C         2.72318055450995       0.57301735316072       1.14578281469044
C        -0.40719169616465      -0.33361487624662       0.21902995339263
C         0.69590848969755      -1.67705211193530      -1.13805916500741
C        -0.24809454741665      -1.02210962660946      -1.87218753047501
C        -1.92497264882556       0.77489667845198      -1.39787495697316
C         4.06032788843583       1.20416041521626       0.76583486622417
C        -1.24166047725379       2.12463778127887      -1.59487107947175
H         0.96316630858593      -1.31328822455509       2.18740946925700
H         1.54737428446076      -2.70915793833055       1.24821454332546
H         3.23096294110830      -1.24743127749859       0.12144839237633
H         3.46578897252948      -1.32883950797644       1.87985465633671
H         1.96375554845218       0.91110391805455       0.43453352357147
H         2.41958225208102       0.89224445835919       2.14993270615978
H        -0.74034816582645       0.17722353929515       1.10500172957415
H         1.45341098207700      -2.37787146245905      -1.43367804528866
H        -2.38405814980745       0.43513449084175      -2.32945621921429
H        -2.69197218103413       0.82630810975114      -0.61836503110633
H        -0.50118388098747      -1.08924836694175      -2.91301596885609
H         4.31141317459258       0.92710460629019      -0.25840240980206
H         4.85559736436259       0.86296940129247       1.43084083472006
H         3.99184485463151       2.29040779859619       0.82956321344555
H        -0.82824463168384       2.48048756828830      -0.65168781183675
H        -1.96818565685173       2.84793565183611      -1.96251977476493
H        -0.43040102675061       2.02263892762321      -2.31682827617116
C         3.27252436336224       1.47181252017799      -3.37159575362531
C         2.23157679051127       0.56134554568720      -2.66611799725748
O         2.67170877492941      -0.20315135672092      -1.78425488710436
O         1.04518086832155       0.68677571599564      -3.03848856265032
H         3.47463355931595       2.32594161908316      -2.72525649762600
H         4.19889234938490       0.92143132992367      -3.52524041437985
H         2.88080065124580       1.82697557386261      -4.32271191272167
