29
C7H16BF4N optimized with DFTB in AMS.
N         0.55528043627573       0.32130027389705       0.33877093874240
C         0.39376547501509      -0.97211223802668      -0.39926243027627
C        -0.85226819667779       0.67465049289116       0.70480031579112
C        -0.84100294987787      -0.76429441226205      -1.26443738677907
C        -1.68777097356577       0.27807826533545      -0.51405709540980
C         1.40253919970815       0.16023534819186       1.56461018708100
C         1.11491607086702       1.38803095152099      -0.53654499149201
C         2.81644040435650      -0.32035310286355       1.26987672308935
H         0.23270112718148      -1.75427080418152       0.34674895828139
H         1.29065704912100      -1.18512210713413      -0.97900103072527
H        -0.91133549807641       1.73499886009522       0.95245255300345
H        -1.13033861479224       0.08327238253020       1.58054297559531
H        -1.37837198156377      -1.70475202506677      -1.39339836792591
H        -0.54679232890846      -0.39831684729081      -2.25029744939494
H        -1.88915530975965       1.14585279125278      -1.14496817103896
H        -2.64470524217688      -0.13583670573483      -0.19112089555945
H         1.42025677522215       1.13226036844958       2.06631873679994
H         0.88987310826934      -0.55753555926599       2.21174490192373
H         2.12892076097933       1.12358548091684      -0.82699241853546
H         0.50659158454777       1.47126586128514      -1.43220945640977
H         1.10972153347083       2.32739522697117       0.01441688143007
H         3.32272969281350      -0.46939193500453       2.22331728422732
H         2.81136835112177      -1.26205244338746       0.72456827027480
H         3.37898758459388       0.40611359054434       0.68755745485316
B         3.21368687515481      -0.55279092772540      -2.34615080950633
F         3.96495378697132      -0.83467708742129      -3.44528942750922
F         3.77321597574901       0.49008796723569      -1.56894871818543
F         3.07135649170378      -1.67706714559173      -1.49426833237569
F         1.89340545187635      -0.14226082136070      -2.70661679126947
