41
C13H24N2O2 optimized with ADF in AMS.
N        -1.28245535943855      -1.12643266303876       0.26619942689849
N         0.84787702682961      -1.08220044894874       0.59951493137742
C        -2.69815962534309      -0.72709716264151       0.30759534913150
C         2.14835116792709      -0.58554754105817       1.06204683126018
C        -3.13719460864684      -0.17107114397856      -1.04671999934035
C         2.71723741716269       0.47673122226018       0.12264841341897
C        -0.31388137375141      -0.50636424785168       0.95704666099074
C        -0.73027203140696      -2.10172987516900      -0.54555359265912
C         0.61917964012819      -2.07147404694559      -0.33730808472272
C        -2.40453397464365       1.11079241567454      -1.45658340289578
C         1.84623508222438       1.72872275415419       0.01945256011588
C        -2.82595679636263       2.33323221643764      -0.64229935033296
C         2.50852549758016       2.82878908706318      -0.80504831711578
H        -3.28707780242221      -1.61593670664453       0.58538692474662
H        -2.76431067581118       0.02354648064021       1.11858918583867
H         1.97502280512290      -0.16032968046305       2.06246869688632
H         2.81964321468268      -1.45277373849463       1.15661272741127
H        -4.22261775165617       0.02522016250752      -0.98415047999856
H        -3.00623820118423      -0.94763895762058      -1.82293084579318
H         2.88104539559590       0.03717112110667      -0.87940328167940
H         3.71400916244134       0.74916254449485       0.51501873656061
H        -0.36214524837737       0.37667718261200       1.71934026399008
H        -1.33395889509224      -2.73727824838066      -1.18207287685071
H         1.41805716741647      -2.67289002047327      -0.75464358703090
H        -1.31413029249168       0.95286472390485      -1.36190421175247
H        -2.59042338373604       1.28983709447506      -2.53047694430709
H         0.87640121663573       1.46824658442783      -0.43870093350300
H         1.60319865810422       2.09279486103227       1.03307494741546
H        -2.64998340539776       2.19213700168523       0.43618428219996
H        -3.90022674116751       2.53650003982448      -0.78822503994355
H        -2.27104243237194       3.22810287690573      -0.96386347448105
H         2.71287116299073       2.49312160762166      -1.83495559111652
H         3.46630292608913       3.13765746372355      -0.35596198315989
H         1.86309649854166       3.71832158736362      -0.86135611656039
C        -1.30276556132039       3.06483042174811       4.06053791027662
C        -1.25084462010457       1.94247077562057       3.02681268945176
O        -2.33119063938678       1.50012378018784       2.55466150706651
O        -0.07326519741732       1.52437345961762       2.72408376855633
H        -2.31758104530127       3.47310657220048       4.14591570021504
H        -0.98901973067999       2.66740412220223       5.03859000480777
H        -0.59191205396114       3.86108939571662       3.79325947502721
