38
C12H19F3N2O2 optimized with ForceField in AMS.
N         0.37477684816511      -1.60855819778203       0.33245097213840
N        -1.75313684905648      -0.96867866957706       0.27755141250977
C         1.77527270487540      -1.70216144082751       0.73911005737337
C         2.64693369724381      -0.72449499405301      -0.05922561784973
C        -2.99338692596121      -0.27586121406524       0.62010429092397
C        -0.61265243503996      -0.97473534458028       0.99406990680013
C         2.24316755561119       0.73545036950070       0.19234826146365
C        -0.16058916229311      -2.02607998274933      -0.83258278120254
C        -1.48306826673321      -1.63142480212482      -0.86539852365519
C        -3.21384219111064       0.94300951922307      -0.28589284396415
C         3.19064978210415       1.70438687700532      -0.50649175577829
C        -2.07824529125179       1.96008995603478      -0.17109397684093
H         1.87171442202541      -1.48622436777794       1.82581978913292
H         2.13922794012085      -2.73732592626572       0.57143804147786
H         2.56535850076230      -0.95562604092982      -1.14387707876351
H         3.70609114251445      -0.87281652235681       0.24439843184732
H        -2.96489743087531       0.05468328430599       1.68186649773220
H        -3.84721009462168      -0.97811215896450       0.50885473787553
H        -0.48655772865637      -0.47422801642042       1.94690572763193
H         1.21636861037928       0.91156757587079      -0.19114717484897
H         2.25187315449999       0.94770120257133       1.28339480008886
H         0.37827868199843      -2.55065847807366      -1.61120970330987
H        -2.18525369800947      -1.78560918291257      -1.67484040464674
H        -3.30768518692678       0.61501565715913      -1.34348802254335
H        -4.16664654128260       1.43601120468238       0.00364636973136
H         3.19092700402907       1.52191073888143      -1.60209604158208
H         4.22220891544460       1.58689212396267      -0.11229138062441
H         2.85616790623134       2.74689662178809      -0.32001409119236
H        -1.13634287009192       1.53512830670657      -0.57597735729434
H        -1.92238447978502       2.25329608804998       0.88875147675729
H        -2.32973242372599       2.86757669515023      -0.75871614823824
C        -1.00892906490620      -5.78013681833283       1.69515352927957
O        -1.48740929646676      -4.65868958814623       1.63190512006605
O        -1.62422510120452      -6.66690523644748       2.26480145442528
C         0.32691271998379      -6.07404258789869       1.08128835984226
F         1.20873440448988      -6.47793511088218       2.06665345459815
F         0.83220942277127      -4.94872542735157       0.45696758405962
F         0.19458786674868      -7.08360400947276       0.14618050557921
