25
C7H16ClN optimized with DFTB in AMS.
N         0.20963593514482       0.26530567320311       0.00288373806305
C        -0.47098463081051      -0.96286757965243      -0.53797936412780
C        -0.84735570520417       1.05700904073551       0.74795226720727
C        -1.96417658757607      -0.68309066004349      -0.44018023239121
C        -2.06352352895554       0.14930113586649       0.83457516482305
C         1.31138347338776      -0.09662739070625       0.96060382500744
C         0.74440233307958       1.09990446370101      -1.10865848940604
C         2.43539596679384      -0.90427121722500       0.33303592316512
H        -0.20448721828570      -1.81186127751966       0.09489090209228
H        -0.12910719735837      -1.15233316596020      -1.55534120166281
H        -1.06293922982411       1.95701895999947       0.17172614441701
H        -0.44839997558619       1.36319973507469       1.71378546188468
H        -2.53484364273473      -1.61051599220896      -0.38388655255851
H        -2.30708911496132      -0.10685748159189      -1.30335017279377
H        -2.98455170461893       0.73060368757857       0.88065028216215
H        -2.00739575167535      -0.49581984810201       1.71525548365576
H         1.69383921417180       0.85534410193492       1.34927515197681
H         0.84412092213389      -0.65910283331355       1.77327611405179
H         1.49484853224916       0.53686567566813      -1.65811019588606
H        -0.07722956235481       1.36392248685588      -1.77154878471803
H         1.17938299076034       1.99795789316510      -0.66130383642448
H         3.09356804331297      -1.23254472752479       1.13706856722714
H         2.06786721420792      -1.78627362965218      -0.19112457675254
H         3.02236060260759      -0.29988603592701      -0.35644385970175
Cl        1.38497233139612       3.07260181814455       1.32223801728944
