32
C10H18N2O2 optimized with DFTB in AMS.
H         1.16037184252209       0.57462447873779      -4.32619647232411
H        -0.51702192002591       0.05237364777810      -4.64173602360642
H         0.82385085073312      -1.09836982517066      -4.83612839815082
C         0.45249383581138      -0.25663224048501      -4.25115887258641
H         1.94671550423012      -0.88782750964532      -0.02485563474045
H         2.25000290468009      -1.57657631497508      -2.64790614977277
H        -1.56898061124185      -0.06677409479073      -2.06515980322851
N         0.28108179932197      -0.70263896198970      -2.86968987769638
C        -0.49566656245427       0.15245628019319      -1.99719823054427
N         0.02920707566078      -0.12900939863718      -0.68250790499752
C         1.30288780465199      -0.71928805901146      -0.87077135099426
C         1.45298123327413      -1.05252374075864      -2.14885943435168
C        -0.11597899324827       0.90321396164634       0.34744437349055
H         0.75791716204633       1.56645745723980       0.35548207553821
H        -1.00512348272652       1.49382845935357       0.10866638481414
C        -0.28943542861503       0.23342768776975       1.71292631736861
H         0.60573840851191      -0.35000212754624       1.94889214032359
H        -1.13645842818600      -0.45854931222959       1.66586195399752
C        -0.52697800698165       1.27690614966580       2.80799411660713
H         0.31387601543851       1.97879352900114       2.83012912246878
H        -1.43248174917325       1.84869444891865       2.57668603912209
C        -0.67746027478951       0.62306648076157       4.18076221600441
H         0.22531454601147       0.06844741350209       4.44060743587866
H        -1.52166567279389      -0.06798281664440       4.18439833608917
H        -0.84856022620928       1.38460933162540       4.94213404924299
C         0.37731802210424       3.69973269182377      -2.86186381174135
C         0.67100427344391       2.30063857760829      -2.36195382396405
O         1.75766006618627       1.92992559448204      -2.01626415081949
O        -0.44682392774367       1.56990178640188      -2.37277929440073
H        -0.49001912853326       4.10458697282177      -2.34447710233606
H         1.24425326200221       4.33569533530372      -2.70079525029775
H         0.15231944029184       3.65080060894936      -3.92642155599285
