38
C12H22N2O2 optimized with DFTB in AMS.
N         2.36826472621510      -1.07768956567962      -0.05900257451432
N         3.35826372997156       0.80957591833576       0.06182307503555
C         0.03188675621269      -1.78435639190310      -0.23406274973040
C        -0.40301784029731      -0.51034466375012      -0.96180406144512
C         1.49308057377288      -2.13400465316928      -0.54470577951428
C        -1.85455045982931      -0.13224137486865      -0.66075201848477
C        -2.21716196731048       1.16872020671723      -1.38581320193957
C         2.70158015328611       0.00245628782111      -0.77597164338101
C         2.80948692265273      -0.95148002553957       1.23427210102271
C        -3.62171215659024       1.64403384298437      -1.02017009067807
C         3.44454595140999       0.24624791657746       1.30771077989433
C         3.81924673048274       2.13679511424351      -0.30792734440283
H        -0.08496973972513      -1.65983367886393       0.84750486916579
H        -0.58916107475168      -2.62907410819559      -0.54751710721766
H        -0.27389565813080      -0.65029275759431      -2.03968137706376
H         0.24008959339142       0.31989119715109      -0.65538486642949
H         1.64434810722525      -2.22527345978087      -1.62365027328607
H         1.77720589506590      -3.07176764224241      -0.05921779432372
H        -2.52732423120893      -0.93660087633379      -0.97923118304110
H        -1.98030276004955       0.00123651421627       0.41995674276074
H        -1.48699350481933       1.94209907263467      -1.12556058586418
H        -2.15764974268996       1.00730195835226      -2.46727151716419
H         2.35294579695715       0.26541693365858      -1.91410121866896
H         2.64547709292428      -1.71180800402649       1.97802380501953
H         3.93895826340139       0.73360274059729       2.13010369714996
H        -3.69654148602304       1.82972067239276       0.05266581348154
H        -3.85220450914637       2.56953805627490      -1.54870599822597
H        -4.36523378360739       0.89338880428087      -1.29423165544505
H         4.64028034113896       2.05355318330264      -1.02094580077835
H         2.98147291362759       2.66436690988966      -0.77080990738908
H         4.15363652612383       2.66408471690070       0.58369015867194
C         0.55064524603934       2.37506748118260      -4.12200849195688
C         1.22480183604900       1.72014283760650      -2.90975723046808
O         1.13758601682827       2.26089800691866      -1.80273428533805
O         1.83562507268939       0.63110264820707      -3.14734821175354
H        -0.19543920547866       1.69145097462065      -4.52491599336663
H         0.07611099213266       3.30924176669284      -3.82973737329631
H         1.29891385605996       2.56171129448831      -4.89070440793468
