60
C16H34F2N2O4S2 optimized with ForceField in AMS.
N        -0.01842366478102       1.98577654330634       0.00152419435060
C        -0.69260248332650       2.89404849482276      -0.97651005670165
C         0.63921474948279       2.89863081439229       0.98647560851642
C        -1.03432008238800       1.14235194376173       0.71155812930467
C         1.01255147829380       1.16561407687602      -0.71422107686974
C        -0.21548405283984       4.30955503881681      -0.71728469995396
C         0.12754200520665       4.30491462501016       0.74527502241826
C        -1.77953548060106       0.13019642932693      -0.19123311049069
C         1.77351731388762       0.15974174338768       0.18183878117959
C        -2.87321553212838      -0.59366147679446       0.60381145919514
C         2.88733588774999      -0.53393413044587      -0.61134145606641
C        -3.62627542467613      -1.60011342900507      -0.27430110051425
C         3.66032380968874      -1.52559799276551       0.26666025992280
C        -4.68812910776351      -2.35157835857172       0.53721576295612
C         4.73349293722411      -2.25897634639707      -0.54650054688840
C        -5.44210378755829      -3.35349251403450      -0.33264120901685
C         5.50063986590449      -3.25368838292043       0.32007899455274
H        -0.49715680631037       2.62171883612163      -2.03923981045567
H        -1.79994941625736       2.90041450863190      -0.85258194823153
H         0.45589325740576       2.61003907745072       2.04712181919885
H         1.74531753472956       2.93272417392029       0.85632789703585
H        -0.55997754465368       0.58153860938590       1.54681704690614
H        -1.79090026790355       1.80326102695413       1.19557997602287
H         0.54903483420397       0.60293860037931      -1.55414550082234
H         1.75805765117570       1.84338577726091      -1.19209253659888
H         0.69717113627675       4.51723614225832      -1.31910318147590
H        -1.00017203243226       5.06158605750123      -0.95152579951067
H        -0.78982712413695       4.48268928598193       1.34953585133179
H         0.89370146525906       5.07289826342125       0.98887378788231
H        -2.24299161595828       0.64647812484835      -1.05810938157864
H        -1.07163381269678      -0.63265811493973      -0.57633926789778
H         2.22076610948281       0.67724044763375       1.05404696918271
H         1.07957145677708      -0.62054799584597       0.55710585955514
H        -2.40539326816555      -1.12927679886430       1.45935660565818
H        -3.59346682614732       0.15313810840584       1.00485783421865
H         3.59173784224831       0.23103302018045      -1.00627309717802
H         2.43501264917166      -1.07657060440561      -1.47070110593665
H        -4.11781702811674      -1.05876428489486      -1.11256238670097
H        -2.90380870418852      -2.33152124898987      -0.69905819205662
H         4.14367425526779      -0.97477596814340       1.10385568206443
H         2.95195013069630      -2.26953949795121       0.69334932015208
H        -5.41621386408505      -1.62802595500921       0.96474914208081
H        -4.20258217167753      -2.89887665063860       1.37462875857434
H         4.25652652116153      -2.81018674743628      -1.38635043443082
H         5.45142925966127      -1.52358263608965      -0.97087864165479
H        -5.96441614485082      -2.82919656332112      -1.16116246274296
H        -6.19799578415619      -3.88531636204145       0.28296552357111
H        -4.73971739373052      -4.10260223536559      -0.75663255969196
H         4.80839310827337      -4.01440868160751       0.74013701814785
H         6.26408283954626      -3.77269805947709      -0.29722762063290
H         6.01488646785696      -2.72555917727499       1.15122567336563
N         5.39574314373005       0.69941002015126       3.88989386825536
S         6.67906669900075       0.50513429852084       4.88686695618642
S         4.58871710700184       2.12126437164667       3.81534578594874
F         6.14143005355724       0.38269718305872       6.46786628297200
F         5.49441142900489       3.22930948330950       2.94643766011839
O         7.42145182102664      -0.74695046770374       4.51654581442005
O         7.59650557244478       1.69027385118261       4.77739159788025
O         4.36415502162135       2.65713779146621       5.20108600980910
O         3.26750886641036       1.91694386216238       3.13272779036365
