22
C6H14ClN optimized with ForceField in AMS.
N         0.58191532560790       0.00161294853824       0.04689099812669
C        -0.28901695840892       1.04520570077631      -0.56058317991830
C        -0.32883730546171      -1.04165110081820       0.59289247874546
C        -1.72191805262605       0.74437662494251      -0.15734307866313
C        -1.72957833922903      -0.74224516058798       0.08831319786143
C         1.40793595237856       0.58483932635024       1.13085013885253
C         1.47849101960157      -0.58291223839129      -0.97859845637449
H        -0.23907518970159       1.03267158358962      -1.67470824622578
H        -0.01579375322446       2.07921086625805      -0.24755404713118
H        -0.35732925201769      -1.02937110274509       1.70770024752272
H        -0.03351413243207      -2.07528924273271       0.29996684162040
H        -2.44559367095141       1.03060552461706      -0.95113882369972
H        -1.96951371732544       1.28295610775057       0.78450990625035
H        -2.50799888855074      -1.03041929550264       0.82759541730922
H        -1.90736780374535      -1.28033304725231      -0.86940124420452
H         2.10736448303148       1.35199398085403       0.72938678028747
H         0.76811846816965       1.07431399099872       1.89949142599474
H         2.01233327754742      -0.20216583816732       1.63557968181383
H         0.89204857691551      -1.09742425293121      -1.77315578935423
H         2.09621738142676       0.20723006511055      -1.46127441423161
H         2.16770032962026      -1.33025699515240      -0.52557512069049
Cl        0.71180181857535      -0.65095236670473      -4.84563488369138
