70
C20H30F18NP optimized with ForceField in AMS.
N        -0.00190251462438       1.49620236211885      -0.00425971530511
C         0.61815860179041       2.42776854683625       0.98861936632531
C        -0.69898135278786       2.38539609953831      -0.98333242819464
C         1.06179867895356       0.71418029979360      -0.71513484164189
C        -0.99518523220784       0.61364522656149       0.69078495019455
C         0.08999593432812       3.82511311586050       0.72423619704368
C        -0.23424108932666       3.80794131592409      -0.74258620861341
C         1.84686366130590      -0.26832864953744       0.18676064256510
C        -1.69251959527791      -0.41572567882611      -0.23118926156896
C         3.01513551819568      -0.89645495179063      -0.58145603027902
C        -2.82332224244784      -1.13857103995065       0.51120912146278
C         3.82721087407453      -1.83347370189060       0.31955485131203
C        -3.50674824077137      -2.16949107264676      -0.39509632750399
C         4.99699707587871      -2.44961352962973      -0.44063484948580
C        -4.62439546810087      -2.89939252412922       0.34411747583272
H         1.72647337172902       2.47984100578074       0.88394346113447
H         0.41687832190965       2.14231348824061       2.04649743065173
H        -1.80472851679072       2.38053400728454      -0.84204696031901
H        -0.51751149903896       2.10114510852030      -2.04502449664794
H         1.78734630078628       1.41897078768321      -1.18502694275315
H         0.62455110651774       0.13749579923878      -1.56012545691361
H        -1.77830469689214       1.24480333078398       1.17227093916889
H        -0.51071261719119       0.06236220884328       1.52684596157281
H         0.84049565508137       4.60809037803664       0.96887224264972
H        -0.83769366780685       3.99685340484151       1.31434367413588
H        -1.01950812694725       4.55225711178473      -0.99828551230178
H         0.68497666034831       4.01120158891494      -1.33592350190098
H         1.18125511690103      -1.08729880178104       0.53027476004495
H         2.24362106166472       0.25534834885313       1.08140144588605
H        -0.95974270620255      -1.17698838636082      -0.57128287541592
H        -2.11431301469412       0.08593451141577      -1.12721075022888
H         3.67824617192678      -0.09235000068836      -0.96540130045519
H         2.61876796629588      -1.46896842507526      -1.44897654692307
H        -3.57649441815896      -0.39399271691202       0.85155585444420
H        -2.40562109892544      -1.65325771833468       1.40469189408020
H         3.17372421673534      -2.64932621729347       0.69832030315043
H         4.22465450350337      -1.26639821703517       1.18962687784666
H        -2.76045067422718      -2.91602481067661      -0.74444998117125
H        -3.93742057016217      -1.65947460692098      -1.28435110085141
H         5.56683707600067      -3.12221557840265       0.23434429231685
H         4.62763187251020      -3.04122373445977      -1.30518665468504
H         5.67776555589228      -1.65306327984317      -0.80561889353587
H        -5.10214865264828      -3.63456883807730      -0.33727143063544
H        -4.21517091275397      -3.44300197064418       1.22223832470461
H        -5.39670490425859      -2.17783373826933       0.68595359767488
P         6.44060410519310       2.70443499574024      -2.16934334485385
F         4.83268355694449       2.89580258352693      -1.57538435414369
F         7.24531163333610       4.22737898898219      -2.12056401874982
F         5.73298553195517       1.14646483495852      -2.00027890337162
C         6.84675643158688       2.97052484398282      -0.29798775325341
C         5.47207086517603       3.53318051780443      -3.62498382974916
C         7.75672000303615       1.65688503946514      -3.10017407935894
C         6.41737117265384       1.83222241882431       0.65257968286662
C         6.28946061814240       3.97321115752996      -4.86591522842565
C         8.55002277872621       0.61313501899117      -2.29139288967526
F         6.20640306025685       4.12215628297096       0.14486896060533
F         8.20587578556467       3.17864735889288      -0.12338808749880
F         4.83201064242494       4.67863100094382      -3.16147711313902
F         4.49890846716104       2.65020390208833      -4.06830898847294
F         8.67843795948408       2.52262637215584      -3.66140530993865
F         7.13547869557704       0.96481554345444      -4.12699156162980
F         6.75090848093732       2.18169646899660       1.94905038197116
F         7.06364016118336       0.65333986235269       0.35252596591503
F         5.05128185191872       1.62437975179707       0.60620337571638
F         5.47268982539629       4.73240512244983      -5.68552106331515
F         7.37894795834122       4.75154751349050      -4.52402686736179
F         6.71685312211861       2.89153713610519      -5.60782424801344
F         9.18211154602648       1.17881191173886      -1.20607633871999
F         9.52733675091869       0.07126850790416      -3.10772022901422
F         7.73549820715391      -0.42311917872620      -1.87711019035643
