25
C9H14ClN optimized with ForceField in AMS.
N         1.09000274448218      -0.01215338285252       0.51067032517186
C        -1.28053451348326       0.01728444777083      -0.12830511306272
C        -0.28212112668590      -0.02242764787791       1.03205800709864
C        -2.72536867920006       0.00389146689312       0.37941170552171
C        -3.71448620159929       0.05100962230474      -0.78113466915451
C         1.73862375848917       1.17874114761039       0.32575773909433
C         1.69476605960682      -1.19143039680666       0.16915907490748
C         3.02816970234068       1.20769298734131      -0.21079899847966
C         2.98144565543999      -1.19698804765582      -0.37371596389486
C         3.65016062216035       0.01124188984344      -0.56332117918618
H        -1.11093542397067      -0.86446305234589      -0.78478416424410
H        -1.10558380043274       0.93983473614792      -0.72455121900426
H        -0.45257229997435      -0.93452978977849       1.64759099302865
H        -0.44875017622524       0.85241933191901       1.70067064216053
H        -2.90645477744567      -0.92109734061381       0.96887959751012
H        -2.90027256956271       0.88316357374490       1.03683916187376
H        -4.75134766317134       0.03870534203150      -0.38456836499444
H        -3.57090718905281       0.97989582429551      -1.37354514289789
H        -3.57576080473588      -0.83075726365516      -1.44260495539603
H         1.25590144067956       2.11497297533763       0.58166433189339
H         1.17932277980981      -2.13526247568354       0.30533296152419
H         3.53876515167912       2.15083848177848      -0.35616793004056
H         3.45343284115190      -2.13127112827946      -0.64812594564114
H         4.64678884744995       0.02066566323690      -0.98487168239677
Cl        6.44768469315039      -2.44875169020643       0.42072071030846
