38
C12H19F3N2O2 optimized with DFTB in AMS.
N         1.81882734732074      -1.05039449144859      -0.34903698200316
N         3.22792950403469       0.58069849348122      -0.33427463208901
C        -0.49365254920734      -1.88623947194190      -0.17548753134922
C        -1.13510342127253      -0.51785769000801      -0.42520336304800
C         0.86102902824823      -2.01873862774340      -0.87016118005210
C        -2.50423717127805      -0.41327696214226       0.25339023872035
C        -3.14089693218175       0.95859389478994       0.00922081293646
C         2.20688379117606       0.04716279097061      -1.00486063410009
C         2.66574705261401      -1.26291377245481       0.71152883765812
C        -4.50632987522135       1.06740028946400       0.68569039252042
C         3.55358884847997      -0.23985006265615       0.71864454539447
C         4.06829741063800       1.65333967656034      -0.83727837075599
H        -0.36592152591612      -2.04483886397523       0.89994625076481
H        -1.14688050180086      -2.67552189700723      -0.55802541702782
H        -1.24670605738255      -0.36005355787131      -1.50335090319171
H        -0.47617898728774       0.26788452016990      -0.03908191856389
H         0.78184559374149      -1.84378119805175      -1.94628974995060
H         1.28232576577450      -3.01431514758979      -0.70904390381623
H        -3.16341238848207      -1.19694923671284      -0.13496564236634
H        -2.38947155006177      -0.57717540551722       1.33043864578110
H        -2.47895350675773       1.74085985306730       0.39652149569890
H        -3.25416286776438       1.12015620266827      -1.06808305326020
H         1.69502850993189       0.50071233906235      -1.83353644154929
H         2.56721282381696      -2.11884738069854       1.35539286429049
H         4.38603777517560      -0.02912363520359       1.36613398487293
H        -4.41119838556680       0.92924745044833       1.76360516141366
H        -4.93898060435464       2.05026092882218       0.49818852184592
H        -5.18662957947027       0.30829636579108       0.29738981359019
H         4.84134064867042       1.19879378795440      -1.46433200768121
H         3.46132015643259       2.33803280327509      -1.42701674711080
H         4.52440603892549       2.17769585835294       0.00059692197233
C         4.21724445338946      -1.53429953953422      -2.33830344695695
O         5.16408859817873      -0.97343662705591      -1.80673436373437
O         3.12369822721292      -1.09851109132608      -2.73099606757265
C         4.32577132039887      -3.13265533177550      -2.46092773031835
F         3.46709999679321      -3.68159762129868      -1.55514702448472
F         5.53728919476491      -3.62156870784128      -2.18215592645821
F         3.96443620468718      -3.60622696552367      -3.66014449841925
