42
C10H22F2N2O4S2 optimized with ADF in AMS.
N        -1.16107697042793      -0.03626421269734       0.06455824827404
C        -2.06354706477721      -0.05351464579405      -1.14968715098163
C        -1.73199695519730       1.11379579084179       0.87799415151722
C         0.27094072472621       0.22025357452049      -0.34177378259326
C        -3.46761349995105       0.22716735709569      -0.61220982097816
C        -3.24466786357374       0.99898845681025       0.71511975002894
C        -1.30188636620220      -1.31708097389539       0.87634888643033
C         1.24776849011458       0.32220518811213       0.81319531307048
C        -0.71392921402160      -2.54674758207744       0.21625587780891
C         2.64884722146111       0.64919784553405       0.28828550673389
C         3.66101927813660       0.78202334696068       1.42355342816572
H        -1.94747931852009      -1.00259086875619      -1.68736766796630
H        -1.71266228497087       0.76585510945390      -1.79461934626735
H        -1.38841968365920       1.01656542317952       1.91493002539875
H        -1.33370210898468       2.03849217363435       0.43526804643625
H         0.54960353710162      -0.58428465793855      -1.04040756460094
H         0.24826005528779       1.16397215401798      -0.90992365292658
H        -4.03889406052516       0.81219386884940      -1.34695733864698
H        -4.02192405910501      -0.70787658155388      -0.44334817520160
H        -3.68486703109263       0.46486097759083       1.56938587430130
H        -3.69233294963930       2.00209661956082       0.70385149635882
H        -0.82688368426754      -1.12717116173838       1.85038186936949
H        -2.37946471386386      -1.44083294333535       1.05225021011010
H         0.93250842995128       1.11413932528027       1.51073798248937
H         1.28357326941049      -0.61633360949724       1.38873466991917
H        -0.93851537510222      -3.40973762396377       0.86168777857061
H         0.37955182923767      -2.48782154196407       0.12883630319418
H        -1.14394238580746      -2.75718355601176      -0.77394880128329
H         2.97267376664305      -0.13893300255739      -0.41736697825215
H         2.60998275707242       1.59146100775194      -0.28860113661436
H         3.73429895077824      -0.15434551596150       1.99677272970584
H         3.35453015423663       1.56842304442426       2.12927706811423
H         4.65933313096793       1.02936009725972       1.03341246556601
N        -0.72980588055616       0.91293753072344       3.86194450479036
S        -0.76330187310224       2.50915594379722       4.08915888489800
S         0.49356933220170       0.00547827180317       4.38785057716181
F         0.36665081534887       3.03081503910805       2.95976691370589
F         0.14811500904813      -0.20008001327027       5.97770104673653
O        -2.01607107337015       2.97718215650191       3.52077263872080
O        -0.26049585209611       3.00777104493220       5.34889647533115
O         1.80540266503970       0.62075196966274       4.36763080822688
O         0.29724526484970      -1.31490430019422       3.80104855647753
