37
C9H13F6N3O4S2 optimized with ADF in AMS.
N         0.61708418374404      -0.31168976420076       0.20002179068116
N        -0.56868984043967       0.66610063654734       1.73652079234745
C         1.55348967827503      -0.54111202781519      -0.91152641810951
C         3.01038593749448      -0.57826772125252      -0.45736709728942
C         0.26132492104812       0.87719648478774       0.70474775957986
C         0.02277991546837      -1.30416926155468       0.94908266883491
C        -0.72046776193285      -0.69127377229916       1.91335550864144
C         3.57298248774003       0.79595695005955      -0.11986541955942
C        -1.15284738738474       1.70081029451774       2.59066994208690
H         1.38663596506149       0.25834182677174      -1.65067293758397
H         1.24764735351788      -1.49134457684042      -1.37353654195453
H         3.09392906211037      -1.24669251201378       0.41616304217211
H         3.58332210255227      -1.03850940580586      -1.28118199799068
H         0.59650500914671       1.84294607314548       0.35185430790832
H         0.19129321072401      -2.35347961722392       0.74363200322874
H        -1.30062362268003      -1.09835371384439       2.73050426731751
H         3.07107092026826       1.24105888100731       0.74958954934301
H         3.49719229488958       1.47713231768101      -0.98367484472953
H         4.63405431428485       0.71809215531913       0.15723029519588
H        -1.17417209176389       2.64584404987085       2.03893151398205
H        -2.17431142076083       1.39736785395029       2.84894916443629
H        -0.54106325087345       1.80564070254712       3.49743688969660
N         1.79338558753418       1.85972114121441       4.28912610856011
S         1.86416731048847       0.28899096581315       4.03085729420269
S         2.91743553763964       2.92706132802811       3.81523474202105
C         3.15468253133518      -0.33515282754306       5.25291803717688
C         1.76533518377822       4.14747783288401       2.94708139499394
O         0.60073398706712      -0.27874394623458       4.50558352422445
O         2.37319702223087      -0.15146905758605       2.72949209940519
O         3.82784286666981       2.48370956901451       2.76576808892871
O         3.41146953345065       3.68079507505917       4.95455779059749
F         3.28340435305003      -1.68006680838233       5.11571482751110
F         2.79417688478133      -0.06124364375423       6.52332138927049
F         4.35301401249267       0.24023909587459       5.00601327634177
F         2.43165285183382       5.28836288240364       2.67424635090326
F         0.67350464211176       4.44895506457916       3.68843460224530
F         1.31691743584625       3.63627224117484       1.75010195818240
