32
C8H18BF4N optimized with ADF in AMS.
N         0.27416879307956       0.06830463350586      -0.25653962866757
C        -0.76590181360318       0.88128951048228      -1.01992317825149
C        -0.22537287790010      -1.36151888488698      -0.09626039172260
C        -2.13907606032728       0.84139146373574      -0.37250534706821
C        -1.60512922635512      -1.43137149427072       0.54055667222182
C         1.55907957299892       0.09784137392975      -1.08724097715122
C        -2.62919555998596      -0.59980030191804      -0.23051027681288
C         0.54095204698832       0.68214545121570       1.07643480824664
C         2.60661007038645      -0.91575821171795      -0.67931363881783
H        -0.80026360328637       0.44089397148432      -2.02849410744515
H        -0.36177385495555       1.90352977334300      -1.09177783259153
H         0.52332667945085      -1.88610605131365       0.51331827911488
H        -0.23513032102714      -1.78897137859397      -1.11029020679468
H        -2.81358677129417       1.41248501437961      -1.03255395821362
H        -2.14303368715479       1.36097694002665       0.60255043051537
H        -1.57104885529184      -1.12561290945130       1.60201298544654
H        -1.89357251697080      -2.49592515882640       0.53464706283870
H         1.25227506078965      -0.07522490183313      -2.12948364752492
H         1.93066339701976       1.13065288154804      -0.98927992243086
H        -3.60516053145372      -0.62551164761732       0.27983006757650
H        -2.75270740368024      -1.03339659362755      -1.23664127224531
H        -0.36623182869678       0.65898475368937       1.68649797340376
H         1.33470279177678       0.11367771221435       1.57510418420837
H         0.86016004129198       1.72088375411055       0.92295742580412
H         3.52065577366992      -0.67861115891813      -1.24494945188608
H         2.86670838023387      -0.88518769762743       0.38984523072591
H         2.30527143891476      -1.93081694838639      -0.97104983003703
B        -0.22831439377021      -1.58662178868915      -3.77748207614161
F         0.14792539143300      -0.20108068317907      -3.90430376155328
F         0.78370523233990      -2.23904343941668      -2.99103692243085
F        -0.37314450889564      -2.18934695975605      -5.01976888235060
F        -1.45443398532483      -1.63027155043531      -3.02654190776529
