31
C9H14F6NP optimized with DFTB in AMS.
N         0.26757028944713      -0.20920870330284       0.79378160637568
C        -1.88983450429845       0.34125322419376      -0.22777772219985
C        -1.05133054059039       0.38430582721686       1.05422279549306
C        -3.34723203340165       0.69066520514781       0.08969689049489
C        -4.20644177857755       0.63933563441484      -1.17121625690062
C         1.24011798731496       0.55470713102953       0.26932924837078
C         0.45838264587833      -1.51530032684435       1.02455418400163
C         2.46781911993813       0.01072575845672      -0.03819120973476
C         1.67286259442516      -2.10597649233602       0.73166438065176
C         2.69579206716305      -1.34210309043735       0.19331675727705
H        -1.84070645734745      -0.66701569690353      -0.64573601263299
H        -1.47296034615977       1.03917624831773      -0.96161116571402
H        -1.52984007294842      -0.19808625754085       1.84217042369743
H        -0.90378301045920       1.41212753689265       1.39391175991014
H        -3.73051541601263      -0.02672026132256       0.82077746795269
H        -3.39673004993784       1.69109164970289       0.53246538428528
H        -5.23699253288140       0.89278739317910      -0.92410939113006
H        -3.84174881337445       1.34750134441397      -1.91707881584743
H        -4.18838172948857      -0.36214036285937      -1.60176052933953
H         1.01284651669598       1.60202008052873       0.10992478992790
H        -0.36640495076702      -2.07547203395080       1.44791565245207
H         3.23967597958091       0.64437731308952      -0.45622949306353
H         1.80207688910893      -3.16215981500964       0.93087121024309
H         3.65610316200834      -1.78441951420601      -0.04233170396470
P        -2.62694377755533      -3.02204040237695       2.36453107863759
F        -3.48054351908250      -4.18195690641779       1.61647367977390
F        -3.96321233708699      -2.10991283279456       2.59795103304138
F        -2.78888816817893      -3.73812066710224       3.80942611068130
F        -1.69838460793901      -1.80108263403357       3.07325745241475
F        -1.20909127786706      -3.84922127306692       2.08154547834349
F        -2.39092973990632      -2.24446057327872       0.88066874990166
