64
C18H26F18NP optimized with DFTB in AMS.
N         1.71241628779923       0.45540612677199       0.51741106155651
C         0.71054865613825      -0.58719879776542       0.90651074752733
C         1.80746356986699       1.30312239170535       1.75406034956665
C         3.05331294469099      -0.16706842750199       0.23218895101283
C         1.04385038424058      -0.93317735588054       2.35519980801230
C         1.70996517833495       0.32850943137939       2.92416465093103
C         1.20824012727493       1.25699878849582      -0.64431178954927
C         3.09806368583385      -1.06850021377943      -0.99805613537394
C         2.16610421679118       2.35334925727210      -1.08793691411657
C         4.52073160144780      -1.62213972444268      -1.15560217886988
C         4.61465423911293      -2.58059381694950      -2.34485024276566
C         6.04067907571610      -3.12023119984165      -2.49467974815859
C         6.15357771336187      -4.07572800025245      -3.68108332755039
H         0.77101137529530      -1.43595903733040       0.22691236166714
H        -0.28175306498175      -0.13579705567778       0.82991851686443
H         0.96138775580407       1.99450269844976       1.74415568010088
H         2.73844554510228       1.86491214351869       1.74385532903803
H         3.33474118409763      -0.73364449004592       1.11940443368150
H         3.76187775514928       0.65108998654173       0.11887840447000
H         1.72521658224086      -1.78467093466441       2.40290357343629
H         0.13370281180347      -1.19384006805158       2.89754258274487
H         1.11695063668173       0.76835418466752       3.72759674478351
H         2.70120177565490       0.10002623657055       3.31702204222945
H         1.01393921367882       0.55940337120029      -1.46207936047072
H         0.25634087975540       1.69601155342726      -0.33325243158233
H         2.39560396741709      -1.90154967460513      -0.89657868575767
H         2.83157412758203      -0.50954520933463      -1.89936926130815
H         1.66867417565884       2.93948484621456      -1.86011703931612
H         2.42237113307985       3.01396585450378      -0.26237125036177
H         3.08322989827991       1.94390129135580      -1.50579192043361
H         4.81016048444646      -2.14356061588637      -0.23854032757740
H         5.21503777671415      -0.78995029600535      -1.29892534959249
H         4.32167671412525      -2.05694124568051      -3.26181799658906
H         3.91891275568434      -3.41507599692123      -2.20022989453137
H         6.73206833146753      -2.28315629986856      -2.63471149150572
H         6.32888520972600      -3.64224143053617      -1.57650976503102
H         5.88533929917048      -3.56755797279453      -4.60864070639837
H         7.17652081629348      -4.44172749730119      -3.76930859716122
H         5.48848805904289      -4.93076343624586      -3.54953603101723
P         6.25629400927694       1.07564988059936       2.02459525822133
F         4.60526375180677       1.07785675525264       2.46911952899161
F         6.59263535003314       2.27931514049749       3.12299014872572
F         5.88415269640808      -0.15868657109788       0.90916698226944
C         6.38059873529662      -0.24823607122637       3.47304565064793
C         5.69785698239941       2.47092887844199       0.68330830510303
C         8.11876891610467       1.05774264598297       1.31298031256904
C         5.72286789350908      -1.64054958159388       3.26258831843001
C         6.52240344672344       3.76276596420810       0.39315157937251
C         9.17817317516681      -0.05945158217640       1.53558486846386
F         5.78072851401586       0.26754393543546       4.56111482410920
F         7.66386645515196      -0.47208395886308       3.80520488175741
F         4.49057480737901       2.96250710687650       1.07180608394905
F         5.46808871210354       1.90030363975879      -0.52224885265528
F         8.71069803870022       2.21766261570078       1.64748561313293
F         7.92487937330521       1.08382210488617      -0.02576351936113
F         5.76728615920599      -2.35185290040400       4.38753186657844
F         6.31051435234244      -2.34815213157149       2.30739895248939
F         4.42384335325437      -1.51514919236730       2.92967230096524
F         5.72916500393861       4.62402934687701      -0.26169131745013
F         6.92054912449409       4.35648594185390       1.51034939420186
F         7.57888066146819       3.54390972325098      -0.37552609816666
F         9.83206066473899       0.10239149069368       2.67815409642194
F        10.07441777161495      -0.03417008552393       0.54871808334155
F         8.60933115508159      -1.26500289140285       1.52997184138750
