40
C12H25NO2 optimized with ADF in AMS.
N         0.48779142563287       0.08484175991095      -0.31542537123088
C        -0.89565831035935       0.44319102512513      -0.81658821023814
C         0.67622007315919      -1.42117331247943      -0.39668403394339
C         1.48585512475670       0.75819595312443      -1.24326215547391
C        -2.01189467799413      -0.29859369336289      -0.09527970997301
C        -0.40927674736171      -2.17761918954840       0.34694399000978
C         0.69702165889398       0.53487196640684       1.12647174710445
C        -1.80604916384584      -1.81342673488927      -0.15236821806180
C         2.96340114820046       0.54586864974166      -0.90760239928138
C         0.79625250187256       2.03641498700581       1.30719480096461
C         3.65699943759588      -0.48946424691926      -1.79376052002043
H        -0.89985298744127       0.18211369658848      -1.88750394998810
H        -1.00553185967433       1.53351404001609      -0.72986336174880
H         1.68538714302595      -1.67847351073307       0.01857224223849
H         0.64131226424959      -1.66094018814522      -1.47345034656358
H         1.21460028651958       1.82367856429829      -1.23199207329540
H         1.24892848542503       0.36810250223788      -2.24657702125681
H        -2.96044207484624      -0.00969829222638      -0.57837766852641
H        -2.08345255207681       0.04015061851370       0.95182916164455
H        -0.31816947831956      -2.00159823402356       1.43182432694830
H        -0.19860792285377      -3.24939995267736       0.20221577768979
H        -0.15354247905177       0.13692856857439       1.69160275510676
H         1.62627243262828       0.02822431906728       1.48534116559836
H        -2.58464333092855      -2.32475883863027       0.43633336163012
H        -1.91683413217608      -2.15250138510695      -1.19918166216362
H         3.46221178246261       1.52329023191825      -1.02791994040590
H         3.09465723464386       0.25521385237275       0.15266979701378
H         0.83021814951698       2.23155380605265       2.38990104592360
H         1.72666548476089       2.44114425709183       0.88437535582238
H        -0.06109340310087       2.59562590944777       0.90052407260158
H         4.73863058300783      -0.48759151515864      -1.59125267667553
H         3.30042509999341      -1.50419267228377      -1.56996271382954
H         3.51120960744702      -0.26686560793884      -2.86448763689442
C         4.61738906857112      -2.53713514051294       2.61912956518302
C         3.59484061066721      -1.82270275590289       1.72813796301433
O         3.26839803346273      -0.64032089067734       2.06996406794660
O         3.14846383799957      -2.47697408590404       0.73764101920799
H         5.31355573610007      -1.81863302412170       3.07324498718301
H         4.07893183321401      -3.04545956379887       3.43539920465683
H         5.16479516762286      -3.30052319675308       2.04909342898274
