41
C13H21F3N2O2 optimized with ADF in AMS.
N        -1.34240956207387      -1.86232922117827       0.13681115514815
N         0.82670843701830      -1.78895769511194       0.23748593861171
C        -2.75405481676874      -1.48830957551274       0.30648930578641
C         2.19063538362776      -1.32485458686482       0.52500860948493
C        -3.15255738215865      -0.38954764192057      -0.67438820531377
C         2.59696438464853      -0.17722174175460      -0.39727397025793
C        -0.30138039345651      -1.29000877314410       0.75944163572541
C        -0.86706702000124      -2.72066440793963      -0.82923765889679
C         0.49484811747785      -2.67599032036276      -0.76475223422125
C        -2.56423623067191       0.97440972343051      -0.32341088625693
C         1.93271118657199       1.15329575741499      -0.05185015717031
C        -2.92175022054516       2.02557392889451      -1.37162882233403
C         2.21881059628204       2.21195192316641      -1.11460874558364
H        -3.33777762356142      -2.40798596839553       0.15212865271983
H        -2.88457952327280      -1.17765106080436       1.35598647326544
H         2.22138846081067      -1.02972609266915       1.58637897398650
H         2.84489213685651      -2.20051125415432       0.40095425348100
H        -4.25641286397089      -0.33886040515157      -0.68460279393957
H        -2.81015895918265      -0.68814666864379      -1.68445628215542
H         2.33298089835939      -0.44707081272815      -1.43380443256957
H         3.69584577705856      -0.07800908506843      -0.34201725130769
H        -0.36279842409012      -0.55488196451661       1.55068801145463
H        -1.52600804866477      -3.22125277317360      -1.52662252549130
H         1.24739430173419      -3.15016577039574      -1.38219547560629
H        -2.91666041816887       1.29009630568778       0.67858947867347
H        -1.46567434013873       0.88683975230661      -0.29980109514790
H         0.84106514953854       1.00926764250656      -0.00693681333555
H         2.27644561704954       1.49127530506022       0.94520272417120
H        -4.01342225309181       2.11117235891376      -1.49739103251127
H        -2.47897266030298       1.74594417202397      -2.33988115693841
H        -2.53098237059877       3.01584362282762      -1.09206661646859
H         1.76441613332931       1.89796281900499      -2.06662887985098
H         3.30255395601975       2.34459407054520      -1.26517389235281
H         1.79147028594228       3.18596235690620      -0.83153753322002
C        -0.34259030561621      -0.76973197465572      -3.09590707658098
O        -1.36072025031595      -1.46208470423197      -3.32250120849795
O        -0.04213670718617      -0.03034886070858      -2.12669151737796
C         0.80908652713119      -0.91624231735894      -4.15329230654825
F         0.39457853522797      -1.33029150296191      -5.37877981790518
F         1.72419242307937      -1.86758519539538      -3.70512623261446
F         1.52525004807447       0.23380559991385      -4.33908955865391
