29
C9H17ClN2 optimized with ForceField in AMS.
N         0.99385226081555       0.35032098628884       0.46455803487637
N        -1.02562725134585       0.36708034429495      -0.46363775192806
C         2.25075942950181      -0.13359045060498       1.02975484698082
C        -2.28349548598141      -0.09600450300783      -1.04370609261482
C        -0.01938521938322      -0.40207307879735      -0.00568441851072
C         3.40252938459984       0.04291734152420       0.03428461623169
C        -3.43944883293119       0.07578730715343      -0.05234538695511
C         0.61752373938358       1.63435067087759       0.29765597497863
C        -0.63753166756970       1.64480406598245      -0.27660840637860
C         3.17830774429337      -0.75838942733762      -1.24834563947688
C        -3.23273417047655      -0.75185346008481       1.21646192426556
H         2.15833521377407      -1.20779162636943       1.30355336046718
H         2.47475038167999       0.42833376334465       1.96260683834828
H        -2.19957309338362      -1.16661206765128      -1.33416803254091
H        -2.49655269003936       0.48324544974943      -1.96847101924531
H        -0.02338321803532      -1.48504432563378      -0.01664948077491
H         3.52119649212029       1.11856507976986      -0.21782263605213
H         4.34252336883033      -0.30425241249826       0.51344319419243
H        -3.54674150066296       1.14790117788238       0.21915216321401
H        -4.38114126787871      -0.25053615738102      -0.54385084943905
H         1.20774318150626       2.49846276539396       0.57306424541073
H        -1.21893727490904       2.51874520201965      -0.54014880720138
H         2.30434150422352      -0.36074164318318      -1.80674449742108
H         3.00343546353798      -1.82919373031281      -1.01138934370627
H         4.07350673089177      -0.67974131220915      -1.89997152968628
H        -2.35792293574928      -0.37529371997213       1.78813510332558
H        -3.06884811207933      -1.82007595606744       0.96037168654278
H        -4.13119591923526      -0.67386054076734       1.86364065203453
Cl        7.11684001300241      -0.26528673390296       1.88810159116293
