34
C8H18F6NP optimized with ForceField in AMS.
N         0.01813351120706      -0.00262626312134      -0.00312890924217
C         0.93757660080749      -0.85245371343941      -0.82044940568634
C         0.91827861036514       0.86470455219122       0.81679550810332
C         2.34830485545028      -0.31745212084976      -0.66392242389726
C         2.33418000799342       0.33824385895487       0.68863320958476
C        -0.81106014496088      -0.86175873194196       0.90300338736537
C        -0.82434943032092       0.84118454912962      -0.91118201358673
C        -1.80626332124430      -1.78392448731322       0.17504922276423
C        -1.83747673780694       1.74444377268016      -0.18496134377636
H         0.66439361328375      -0.88406851566132      -1.90023363490762
H         0.95559855165577      -1.91035526438846      -0.47114864917001
H         0.62735356380015       0.91104875926343       1.89133821966873
H         0.93551395393225       1.91628541244934       0.44998614610663
H         2.55431991699741       0.44112243125183      -1.45114230194824
H         3.10738769864379      -1.12793679454043      -0.71700805388886
H         2.52963730655662      -0.41862489191470       1.48003800520513
H         3.08713980610073       1.15336948382029       0.75521668280783
H        -0.14792344205577      -1.50135013949762       1.53007320376570
H        -1.38647467619252      -0.23762227842529       1.62193297045719
H        -0.17150316053846       1.49312643238248      -1.53639338307840
H        -1.38575531557859       0.20692383285904      -1.63229584075122
H        -2.25551392079900      -2.48560686841490       0.90845877303567
H        -2.63501491150030      -1.20162815606636      -0.27604838093453
H        -1.31114026805675      -2.38337001125202      -0.61556616955056
H        -2.28976319533476       2.44599985924331      -0.91658688834644
H        -2.66158672099329       1.14696075053399       0.25473990942092
H        -1.35656900838252       2.34323940530118       0.61459077867212
P         1.71153659878861       4.65091360355829       2.83075225015626
F         0.52994615197717       5.34826151596956       3.86600207647507
F         1.91585003889993       6.06791558101853       1.87968777602509
F         2.89742113770531       5.27029702422972       3.90974251804099
F         2.88729165535115       3.86181707085389       1.85669853437817
F         1.61568090342811       3.16296384463823       3.68570783148576
F         0.41845223532087       4.20874280329780       1.78936894294584
