43
C11H24F6NP optimized with DFTB in AMS.
N        -1.00059295208209       0.35967262883815       0.30701371337454
C        -1.72740329001726      -0.45301438831178      -0.73215966456470
C        -1.97036758097343       0.45527380263709       1.45188438770064
C         0.22959543281455      -0.35968724415876       0.77715042712619
C        -2.78467030716219      -1.28096896388647       0.00257036347794
C        -2.68140381861548      -0.88665017978077       1.47815721453984
C        -0.69009201489657       1.71801347783805      -0.25288439961097
C         1.37045929545432      -0.41611608474659      -0.23799083347829
C        -0.07339712963248       2.68242782581349       0.75521247508397
C         2.45841895800383      -1.37168373358333       0.26847124670136
C         0.04929823094610       4.06117232946989       0.10645334839364
C         3.63380026537064      -1.42991497289364      -0.70469893794355
H        -2.20050960487234       0.24242295348288      -1.42533272645163
H        -1.00988236839896      -1.06638114188643      -1.27655281990443
H        -1.43317092898107       0.68206458343013       2.37216603377773
H        -2.67146467427719       1.25783656794141       1.22337000587825
H        -0.08143577674184      -1.37327612388984       1.04272833022929
H         0.57391868483936       0.14281679274787       1.68427228098755
H        -3.77067561797256      -1.02232453878882      -0.38669212594193
H        -2.62065142348951      -2.35053558648808      -0.13815261982463
H        -2.11103627518546      -1.62669573128517       2.04588820891298
H        -3.66589331817444      -0.78464301549316       1.93605479324438
H        -0.03205042631416       1.57498127102074      -1.11245063254375
H        -1.63541763021506       2.12818990818819      -0.60691910571831
H         1.01008793406339      -0.76358455853642      -1.20977451286276
H         1.80462192610195       0.57751549632265      -0.37390389319665
H        -0.71933072290159       2.76288006385281       1.63243214522174
H         0.91181487340750       2.33392676711368       1.08065390863339
H         2.81051456026286      -1.03334748324388       1.24845915495918
H         2.03434081878223      -2.37373142958883       0.39143143453299
H         0.68822109889425       4.01570131952755      -0.77624635123214
H        -0.93524118456253       4.42188374668818      -0.18969650380083
H         0.48209005428346       4.76404572009525       0.81728148313779
H         4.39326965253365      -2.11382216424801      -0.32684582192301
H         3.30340099661236      -1.78170501595364      -1.68259687721606
H         4.08155409165668      -0.44265896312942      -0.82271957824466
P        -4.23066906506658       3.08292756672238      -0.51948662672096
F        -5.36858121169258       2.72988862244514       0.59583209637646
F        -3.08586811011329       3.19006044740924       0.71557449959459
F        -3.86712050343798       1.42704052954360      -0.62762001434435
F        -3.00195180688666       3.35913572069639      -1.60441378873987
F        -5.29439608219700       2.91746998521184      -1.73573085458867
F        -4.51505168126678       4.67569110685643      -0.39509658363229
