29
C9H14BF4N optimized with ForceField in AMS.
N         1.10612293870276      -0.00787456836636       0.53319586515084
C        -1.25780640261749      -0.00147831177271      -0.12943812632486
C        -0.27103059790221      -0.01460024392621       1.04218188308122
C        -2.70962976419757      -0.00349775868173       0.36002546169473
C        -3.68283070192054       0.00852126648381      -0.81516204304023
C         1.73208662757209       1.18349559163073       0.28511954085470
C         1.73449210103307      -1.19226904740877       0.25900781328899
C         3.01808039620718       1.20827632564596      -0.25963807363001
C         3.02040796492209      -1.20245309861722      -0.28641745639765
C         3.66102059289843       0.00667613300752      -0.55173351699926
H        -1.08060309301147      -0.89816677580822      -0.76294740847781
H        -1.07755847903089       0.90663304698784      -0.74558774515644
H        -0.44558757476116      -0.91587804756669       1.67209847908230
H        -0.44636917048220       0.87158599959884       1.69298074978065
H        -2.89722636771471      -0.91135978168030       0.97364498362218
H        -2.89424886732773       0.89406608248241       0.98951181444095
H        -4.72553388272081       0.00705774844119      -0.43410599921321
H        -3.53109502346743       0.91944423830221      -1.43255408647702
H        -3.53432851614210      -0.89200052771063      -1.44838981370843
H         1.23236333946986       2.12228277131868       0.49449053355787
H         1.23661788672603      -2.13640866336945       0.44754618726343
H         3.50830494872593       2.15161476005703      -0.46028377572973
H         3.51232127923751      -2.14012114702698      -0.50809193832013
H         4.65197659975669       0.01270311124857      -0.98538870842264
B         6.54776343437994      -1.66160071801545       1.53773141361575
F         7.85728812586548      -1.91712900349839       2.02307186464477
F         5.63205889586631      -1.65815882414486       2.62283350372799
F         6.18025393497562      -2.67324351307524       0.61157098485691
F         6.52321284095731      -0.39691102293558       0.89402820103414
