48
C14H28F3NO2 optimized with ForceField in AMS.
N         0.00354517123439      -0.00365761729305      -0.00006949631713
C        -0.84559664545659       0.64166623320365       1.06397179611770
C        -0.84657273941499      -0.64667526037504      -1.06467127433941
C         0.85247595356731      -1.06812758097006       0.64424475757878
C         0.85416922437682       1.05877047235120      -0.64497525561787
C        -1.91490213617422      -0.26903531631545       1.72172865978648
C        -1.91455163229743       0.26625251276628      -1.72225258678571
C         1.92173905401968      -1.72516311474467      -0.26690925124969
C         1.91820905979548       1.72289341353165       0.26662581024550
C        -2.70991009142765       0.49906235341845       2.77548110002838
C        -2.71063704993630      -0.50054926478617      -2.77600119059096
C         2.71737358526143      -2.77863492109896       0.50066724387409
C         2.70789125578320       2.78035085595245      -0.50217563955166
H        -1.35441447425183       1.54619534052350       0.66196114465228
H        -0.20417341487263       1.00928875434418       1.89323638842478
H        -1.35737310235006      -1.55014442623625      -0.66311984044431
H        -0.20541175267018      -1.01560694482387      -1.89363481587610
H         0.21067056165893      -1.89711354216687       1.01207977345008
H         1.36234257138196      -0.66608187074350       1.54808456818406
H         0.21290662276158       1.88316476028820      -1.01738458350725
H         1.36660450022313       0.65558294132746      -1.54671451919946
H        -2.63669063436282      -0.65288192011230       0.97405492016123
H        -1.44075585517031      -1.13207480996933       2.22997392039026
H        -2.63575957467392       0.65085924816937      -0.97438930172981
H        -1.44010462298118       1.12899600384016      -2.23076350237234
H         1.44774109580266      -2.23286040407859      -1.13037376176048
H         2.64359735395192      -0.97701488249809      -0.64972159375387
H         1.44083384882432       2.23027736079597       1.12833812393610
H         2.64259230702454       0.97833771869858       0.65188902361781
H        -3.46375404157543      -0.17361762826928       3.23682219171580
H        -2.03450394004492       0.87205393442568       3.57482391043646
H        -3.23899729396555       1.35808301422005       2.31094966314578
H        -3.46472826426909       0.17272840871708      -3.23601560199477
H        -2.03582814365981      -0.87285813736244      -3.57616243139764
H        -3.23943350505970      -1.35999238619250      -2.31190670582768
H         3.47206635971251      -3.23839712707002      -0.17210299203107
H         3.24561937313232      -2.31404248621193       1.36019073652346
H         2.04263874062348      -3.57890467881043       0.87279433038904
H         3.46433801854646       3.24083615848321       0.16800895710932
H         3.23301255927622       2.31977372977730      -1.36570572464037
H         2.02945860192009       3.57982570238335      -0.86872644723021
C         0.74917107218566       5.76580518850270      -2.75226885926803
O         1.27763072063419       6.76240254100896      -2.28515480773739
O         1.37513263490711       5.05736028107591      -3.52423572530680
C        -0.66129257038305       5.40879543286931      -2.38611592233376
F        -1.44677274268478       5.40345962381204      -3.52388656410708
F        -1.17754801099668       6.32429821247361      -1.48557169948397
F        -0.68685549922630       4.15229136706854      -1.81211649301260
