47
C15H28N2O2 optimized with ADF in AMS.
N         1.79515226060633       2.09608497225183       0.17368380687945
N        -0.21523812852182       2.34862895353950      -0.55711542852672
C         3.19880948119106       1.67080974702908       0.24104255731220
C        -1.40168689496948       2.23245715444583      -1.41998406907045
C         3.32808967788854       0.33114907051810       0.96512693272018
C        -1.69234378911795       0.77311078033000      -1.75011500222798
C         2.69957075997339      -0.81395832073309       0.17814024966955
C        -1.89164431358846      -0.10815862175922      -0.51876165603861
C         1.02657065470417       1.98003032730556      -0.92451936242002
C         1.03880744798170       2.52751337183761       1.24689766640434
C        -0.23359217637946       2.68676199997406       0.78269341420725
C         2.68004730582247      -2.13940430666914       0.93437243280282
C        -1.98085213001867      -1.58966194524207      -0.88771986680450
C         2.06501793690671      -3.25842752748766       0.09570071781629
C        -2.12517882760613      -2.48895729971225       0.33698144991477
H         3.76523356907571       2.47035650983689       0.74311225595081
H         3.54483001708866       1.58733121909235      -0.80075009263294
H        -1.21091533059376       2.81900645089652      -2.33149131218747
H        -2.22813015373469       2.70808005190320      -0.86900286536416
H         2.86486655604377       0.41224832793046       1.96635135720766
H         4.40333193858739       0.14047432649283       1.13196354754444
H        -2.58682852638995       0.74566627968984      -2.39686592359001
H        -0.84099035435169       0.36258955997108      -2.32316930927757
H         3.24528588949697      -0.93804547542861      -0.77396492540819
H         1.67006430251311      -0.56001778040009      -0.12514885294917
H        -2.79488248840102       0.20170066749987       0.04302270634421
H        -1.03205673730376       0.02039207508461       0.16497958151447
H         1.42454353624518       1.54231645313789      -1.94613166395356
H         1.46405655810175       2.69145929387102       2.22949056299621
H        -1.13814672315728       3.01208151423022       1.28076190099419
H         2.10596041538369      -2.01579311837550       1.87205723156689
H         3.70904567993151      -2.41453106315772       1.23373930200293
H        -2.83634696739302      -1.74550808441821      -1.57040055300475
H        -1.07087217540419      -1.85212222606788      -1.45293516891448
H         2.65430909405654      -3.42633372037938      -0.81992988372002
H         1.04800871636245      -2.98830857195909      -0.22627520422370
H         2.01809665604970      -4.20505519753853       0.65538260975435
H        -3.04390095022170      -2.25515259794100       0.90091708722190
H        -1.27015608917633      -2.35774173198622       1.02055802007272
H        -2.16456276159485      -3.55210004671229       0.05356143164426
C         2.35959712179011      -1.14675328377367      -4.31572078677573
C         1.73498925022201      -0.30670081966659      -3.20482135329365
O         0.87770475620819      -0.83911037427390      -2.45440221085841
O         2.14970101210253       0.90904694877458      -3.12862129144257
H         3.45567789980398      -1.14715043186962      -4.21734105743959
H         1.97956515746314      -2.17593336279262      -4.28500047977242
H         2.12641295892343      -0.69623762579861      -5.29269066364520
