19
C7H10ClN optimized with DFTB in AMS.
N         0.14578020275333       0.01177245937681      -0.24898029535041
C         1.56459230208139       0.12014981109456      -0.58746895615876
C        -0.49215840621388       1.10847498163184       0.35736868430827
C        -0.43915664483206      -1.22580026788255      -0.24142525026533
C         2.46337486869970      -0.42546151477560       0.52135468249601
C        -1.95572751186961       0.98973706516184       0.37086968671861
C        -1.75797945210299      -1.37970405442225       0.01754816847360
C        -2.54912302383548      -0.21509796631080       0.27174576857156
H         1.73473360639560      -0.43564150058259      -1.51614102602402
H         1.78930461367712       1.17503135435306      -0.76982840840642
H        -0.12211347982624       2.05416033284792      -0.03974600299217
H         0.19985712359467      -2.05163392767335      -0.53366970561897
H         2.32108838678611       0.14257277916712       1.43905538135252
H         3.50446550335589      -0.34511903611668       0.20986926070597
H         2.23426576541971      -1.47229766715604       0.71860288804660
H        -2.51479281922844       1.89737476958772       0.55976833471612
H        -2.21678374052408      -2.35788161426158      -0.01894813627385
H        -3.62658126260717      -0.31359460338571       0.33571247423571
Cl        0.08018295827644       1.24327591754627       2.19381962566493
