28
C8H18ClN optimized with ADF in AMS.
N         0.13018097986290       0.06426008276711      -0.08538996314842
C         1.04611985116221      -0.75465204477012      -0.99259086090095
C         1.10535651458307       0.89371391556963       0.73715512887364
C         2.37864891063773      -0.90874702510344      -0.24489212665140
C         2.26041756587002      -0.04845310094376       1.03121207122275
C        -0.65618295263225      -0.84269908400557       0.83092953378793
C        -0.75546064229991       0.95867051854900      -0.93108488509941
C        -1.75575766154397      -1.63225824102492       0.14690955903232
C        -1.65835816477172       1.86098916312154      -0.11769954948052
H         1.20697131694983      -0.12731444898014      -1.88819592573718
H         0.53975079228318      -1.69834412308899      -1.23033466391066
H         0.58571367504094       1.28311922815589       1.62230129912163
H         1.44707288907316       1.69300999124340       0.04500265461645
H         3.16356534490449      -0.49652716540538      -0.89671690820588
H         2.61266267662134      -1.95741293223718      -0.01082697977788
H         2.07317885103534      -0.66564566617451       1.92446240075866
H         3.17470019538610       0.53555256862694       1.21239601313895
H         0.07970902968630      -1.51475079122367       1.29444566423291
H        -1.07391544514434      -0.20442753657436       1.62349376912375
H        -0.02973939657297       1.54387561748220      -1.54086723850959
H        -1.32556992327749       0.29440667037681      -1.59688518015267
H        -2.17433804534001      -2.34712723689396       0.87074442399486
H        -2.57394102607822      -0.98622804814116      -0.19808379701154
H        -1.38443821192313      -2.21042115931274      -0.71031685147538
H        -2.22149420189674       2.49608300756490      -0.81797911965563
H        -2.39039935165597       1.31884519968542       0.49988852306909
H        -1.07596656592436       2.53577643566012       0.52549502871908
Cl        2.12696480236447       2.07757045787694      -2.14515628177492
