46
C14H26F3NO2 optimized with ADF in AMS.
N        -0.85480922097079       0.11440557881208       0.44479706516977
C        -1.69567460036757      -0.55413277613966      -0.63393017926214
C        -1.70442624066231       0.22682775809867       1.70827435696143
C         0.41180831099307      -0.64549384424618       0.75537119209525
C        -0.56636687443207       1.51980302546732      -0.06303905005557
C        -2.23112832821415      -1.90936251714685      -0.21153357578378
C        -2.29796782442194      -1.10176467084084       2.15112724379467
C        -3.10465461440281      -1.75830176982433       1.03339558615774
C         1.37590624076269      -0.83032449475678      -0.40371865672629
C         0.34583899453955       2.36721667672811       0.80639460013887
C         2.62460401102066      -1.58724267832139       0.06029674426760
C         0.22928236087000       3.82489505403320       0.35049644759026
C         3.63298520949894      -1.79751187669299      -1.06596653211684
H        -1.07085606550782      -0.60441332214223      -1.53648765695214
H        -2.54597292527321       0.14087520230173      -0.79127216635440
H        -2.49032029615202       0.95960756570841       1.45713796933847
H        -1.05449042087170       0.65020601895789       2.48611862532043
H         0.10984192086363      -1.62394094534137       1.15002099622914
H         0.90068658339157      -0.09509744660625       1.57397958781125
H        -1.55926624117367       2.00654182322625      -0.11052419735555
H        -0.15938756566880       1.40580557789193      -1.07919440906404
H        -1.41911644137063      -2.64007083042254      -0.04227217389217
H        -2.82880904136641      -2.29024696984377      -1.05582517005692
H        -2.94711160161130      -0.87723668241782       3.01365249009143
H        -1.51506402772028      -1.78731177668619       2.52290195555259
H        -3.96088685214794      -1.10911384266604       0.78046582233455
H        -3.49063080624636      -2.73638395579118       1.36149807218153
H         1.67911760992282       0.14530620123317      -0.81845743344432
H         0.89942177692513      -1.39819373154672      -1.22013963692034
H         0.02674171972222       2.31151978814250       1.85966911956175
H         1.39599912448996       2.03003528495641       0.75504605865165
H         2.32490052945461      -2.56618839953482       0.47573774349445
H         3.10317336343892      -1.03101398283866       0.88628173809295
H         0.87168901062279       4.47773992521102       0.95880186919689
H         0.52794630251669       3.93928721745811      -0.70358787710453
H        -0.81435079809588       4.15944597558672       0.45053564358572
H         3.97527907228738      -0.83382957243149      -1.47491771903695
H         3.18954537211702      -2.37629148285153      -1.89163422416967
H         4.51756630394386      -2.34504910866877      -0.70820956357129
C        -4.13618462718838       2.36644457198860       0.03614377172576
O        -4.23348487280454       1.18492353916437      -0.38326563963083
O        -3.18271271204237       2.94307642636258       0.61859850106318
C        -5.42287409495232       3.22842466605408      -0.18517554793042
F        -6.42833148165107       2.80663497009252       0.65217588873461
F        -5.89408177734362       3.11899075629440      -1.46582335023770
F        -5.23887509632155       4.55769869648832       0.05478622052392
