59
C17H21F18N2P optimized with DFTB in AMS.
N         0.83917754224907      -2.07373405373436      -1.17630065210003
N         1.79601612726941      -1.93819835615672       0.74864530482473
C         0.05750752969260      -1.72864839895260      -2.36035737384229
C         2.18191990135696      -1.46288961931606       2.07393699270279
C         0.92840118581326      -0.98789794629982      -3.38001813680393
C         3.28918626055350      -0.40864412072317       1.98600280614401
C         0.90520090519819      -1.35508160913299      -0.05602404753207
C         1.71450296894056      -3.11864995096133      -1.09395907045468
C         2.32413904751507      -3.03065819250550       0.11763020778622
C         1.43500795947889       0.35574550228744      -2.85107350657610
C         2.80032008368863       0.90584661711811       1.37109704675481
C         2.28131738858116       1.07228899773232      -3.90112885122473
C         3.87898875062608       1.98502659946043       1.43885938490667
H        -0.32150826998025      -2.65977607368524      -2.78884219224324
H        -0.78563462404439      -1.11129365194020      -2.03753435527877
H         1.29091131635305      -1.05347697179646       2.55908279272035
H         2.52987119545015      -2.32989855244311       2.64048013414365
H         0.31946804475078      -0.83089882647449      -4.27481808692400
H         1.77530572200194      -1.62022203054830      -3.65251405082057
H         4.12052984603238      -0.81068175019105       1.40267741662926
H         3.64547048854004      -0.22806025608523       3.00432016080668
H         0.31513944058856      -0.48546185951201       0.17364302338803
H         1.84007992583887      -3.82389100858837      -1.89547106155098
H         3.08852875419533      -3.64403632797876       0.56081414798295
H         0.58229090700155       0.98340772040125      -2.56535906811446
H         2.04178805599815       0.18614571352359      -1.95598511897818
H         2.52533326722143       0.73744223919675       0.32527104088604
H         1.90551921945977       1.24700887454150       1.90468114230621
H         1.69370561247180       1.26710581339027      -4.79898704370103
H         3.14191665089569       0.46221125025437      -4.17156230206110
H         2.63779340195471       2.02180195895734      -3.50227400245738
H         4.76885756330395       1.66768734437365       0.89700373548053
H         4.15378895524312       2.18685827350955       2.47474314228222
H         3.50732573171950       2.90590590890889       0.98999979722374
P         5.23930742754448      -2.45675720903597      -3.35303876529992
F         5.03027119568494      -0.81904631761245      -3.68553643181331
F         6.78779296581127      -2.39997934414560      -3.95602043666973
F         3.64889199327949      -2.52099307345256      -2.69329314655912
C         5.86331411644568      -1.89571083956836      -1.57120694697978
C         4.44633977558917      -2.74732081336280      -5.12279807644612
C         5.51349492996411      -4.39947753260735      -2.95363680842499
C         5.60917053766495      -0.43013848148019      -1.13539211507438
C         5.33421685628830      -2.50121519909843      -6.37032699003036
C         4.36752803479728      -5.29706518163913      -2.41008340486258
F         7.17351155287172      -2.10958271983964      -1.39821094701380
F         5.21010094247155      -2.63553620721460      -0.63434737979154
F         3.38818071318554      -1.91526432091243      -5.24628364030218
F         3.95276446264896      -3.99439274042972      -5.23107361809094
F         6.50388221798568      -4.51384700169054      -2.04715603176727
F         5.95429513872149      -4.98108839338988      -4.08520058051033
F         5.98123935999099      -0.27603529381110       0.14715171136971
F         4.30155403987399      -0.13454575893540      -1.18664857437074
F         6.27303520207033       0.46203103720615      -1.84783584868304
F         5.87138166207873      -1.28596451279199      -6.34368021910939
F         6.31023144949696      -3.39710762506265      -6.45390732889827
F         4.59549020102686      -2.59589744357039      -7.48038936016913
F         4.09087405640675      -4.98801474497710      -1.13348855864284
F         4.70675782785694      -6.58197720383270      -2.44322785597726
F         3.22553848358436      -5.16327217417484      -3.08966342118802
