21
C5H9BF4N2 optimized with DFTB in AMS.
N         1.35967529051181       0.04069634430366       0.01182060499442
N        -0.78394079294579       0.22166268421736       0.07948669381105
C         0.22553083567818      -0.64884558956700      -0.03242351203807
C         1.08293713386780       1.37029614532846       0.15283213355416
C        -0.26966177936930       1.48759668117601       0.19688546507720
C         2.69784658767487      -0.52022288222624      -0.06652196632647
C        -2.19725519228946      -0.11034254054530       0.08031990339889
H         0.12990175468287      -1.71566101381790      -0.14012571270729
H         1.87123918080816       2.10802521343184       0.22191417851655
H        -0.90242094806593       2.35123485328943       0.30033477059979
H         2.63099845012543      -1.57948653479638      -0.30768039730541
H         3.25723223679390       0.02432803094353      -0.82753816631061
H         3.20087654554076      -0.37347173479168       0.89025771914090
H        -2.64419495898047       0.21819457178045       1.01942398201964
H        -2.68742546281784       0.39594738115051      -0.75216754599775
H        -2.31125062674667      -1.18790465953707      -0.02500932792959
B         4.31042050863939       2.29891988862973       0.52108286984351
F         4.75635593505210       1.05564739634009       1.00607919272531
F         5.32329755234386       3.21050348007069       0.42697332007430
F         3.26898935283220       2.75630320818012       1.36404447640536
F         3.71234636386414       2.06222361723970      -0.76029663094589
