38
C10H22BF4N optimized with ADF in AMS.
N         0.51717764659344      -0.21183848691171      -0.01592030003256
C        -0.32929825370728      -0.20575427674193      -1.28341818287144
C         0.39808420598762      -1.58657787053374       0.63489938824505
C         1.95710441863227       0.01315696234431      -0.45581314589046
C        -1.77998309202611      -0.57398301495118      -1.02935749855066
C        -1.04265878071805      -2.00403103549608       0.89209751381847
C         0.07596938477008       0.84520799384377       0.96965790854741
C        -1.88369171901869      -1.95469517945617      -0.38210543827935
C         2.99068853654449       0.07171053470518       0.65596053888651
C         0.17680238171433       2.27132932227465       0.46715910989909
C         4.38576404247300      -0.04987990198059       0.03653382398118
H         0.14824377968573      -0.93750934816782      -1.95320561012526
H        -0.21928379563975       0.79108126743087      -1.73177327277073
H         0.97000896927259      -1.54104363215909       1.57088445178708
H         0.89063114475183      -2.28621965565096      -0.05649129928035
H         1.95553800374431       0.94135908918940      -1.04664809645338
H         2.18361371488803      -0.81430428686835      -1.14132167316790
H        -2.28237042599099      -0.57254727300801      -2.01117958991710
H        -2.29065069134207       0.19095116698064      -0.41650348334745
H        -1.50115679796425      -1.39340892476472       1.69009346562056
H        -0.99703235735728      -3.03603222534995       1.27897486421351
H        -0.95836565873834       0.60869172020032       1.24611814208782
H         0.70044755674335       0.69986958302056       1.86351773362529
H        -2.93422366113469      -2.19927148960838      -0.15765446820523
H        -1.49619595077211      -2.70562251748439      -1.09020801090413
H         2.91152824983639       1.00774990886860       1.23628513446583
H         2.85296481812675      -0.76752037139725       1.35575277103726
H        -0.17699692907755       2.93888478997377       1.26742265794159
H         1.20953340560002       2.55958524387017       0.22695038634566
H        -0.45649302430695       2.45088579110377      -0.41291200742785
H         5.16057342210797       0.00061814177870       0.81503199169619
H         4.47665167138351      -1.01076676220215      -0.49201120010127
H         4.57509907406771       0.75768213919441      -0.68731920321328
B         1.84579581842504      -3.01359767579258      -2.47112447852157
F         0.49262108950572      -3.29323915242017      -2.07437685787638
F         1.85745322554464      -1.71309292097085      -3.08324664866930
F         2.33292494456427      -3.98660896160924      -3.33494166826717
F         2.63710850953101      -2.93369829485381      -1.26802676332567
