46
C14H26F3NO2 optimized with ForceField in AMS.
N        -1.89217587215468       0.13546130599670      -0.05713609545529
C        -2.10949378714921      -1.07033369744980      -0.91365962036100
C        -3.01133269131225       0.11106113699464       0.93492855782953
C        -0.58581620478006       0.02941131196169       0.67024904278535
C        -3.48813682616101      -1.62296734924290      -0.61023122868526
C        -3.71711597060947      -1.22599455149440       0.82057214541796
C        -1.97804372321569       1.36871006897230      -0.90502683670474
C         0.66618266028567       0.03306488732289      -0.23902879757938
C        -1.75863508197493       2.68815001526714      -0.14368042606891
C         1.93427692764985      -0.18210045994078       0.59691876492730
C         3.18802973624109      -0.20583741257252      -0.28495198335057
C         4.45351653133210      -0.36639097936854       0.56580181581544
C         5.70595320434799      -0.38572252596924      -0.30495175347821
H        -1.38268731822422      -1.88404799471202      -0.68677913240443
H        -2.01804632166209      -0.85911074137123      -2.00397252072594
H        -3.77510686556489       0.89581706385359       0.72893947764642
H        -2.67367259284409       0.26983514622353       1.98519234798663
H        -0.57426021407121      -0.90766593214040       1.27443922059964
H        -0.48364832912630       0.85620079160198       1.40744161475258
H        -3.53265295441241      -2.72600701710177      -0.74244916006303
H        -4.24418087054202      -1.13428731512872      -1.26436732361400
H        -4.80060966199069      -1.14580458754009       1.05650504750824
H        -3.23780907042412      -1.96597149702086       1.49971499354642
H        -1.24548913940929       1.32760576723954      -1.74017392663352
H        -2.97771302923827       1.42131340088340      -1.39453119769135
H         0.59786980225343      -0.76867540319577      -1.00384197531404
H         0.75858172353394       1.00763181647893      -0.76079128683540
H        -1.97014927701395       3.53849400328266      -0.82555568786807
H        -2.43447187840412       2.77624254118919       0.73097578708015
H        -0.70686897440622       2.78689142466298       0.19269815322923
H         1.85641095765004      -1.14634348217247       1.14574654476887
H         2.02221642194594       0.64104846875879       1.33992187698028
H         3.25157417317933       0.74258929321521      -0.86243528990763
H         3.11604116990435      -1.05334096976233      -1.00173464026656
H         4.53150126259640       0.47789076017015       1.28499443594940
H         4.40129377141762      -1.31562988798293       1.14210083940653
H         5.79460635954723       0.56642148966546      -0.86944953132303
H         6.60452576781107      -0.50166324391797       0.33689135699355
H         5.66744554259792      -1.23578055225098      -1.01900187280900
C         7.71699306905237       1.14596266601532      -4.12780627072841
O         7.10505358270597       0.48378585992885      -3.30511757132120
O         8.90001928284338       0.91920294287994      -4.32420359326615
C         7.02552412834897       2.23133707809341      -4.89852800620002
F         7.65008929921288       3.44098577582818      -4.65461016965793
F         5.69683215749326       2.32542823081996      -4.52085343604631
F         7.09093626664035       1.94972259452929      -6.25095689046413
