37
C9H20F3NO3S optimized with DFTB in AMS.
N         0.15287766481455       0.20504476827735      -0.05055101199727
C        -0.70505566998999      -0.21159573785808       1.10894678991603
C        -0.67425760419598       0.78915318928765      -1.17537602206570
C         0.88395916401929      -1.00536384228219      -0.57197845843809
C         1.12065719606032       1.26224328146536       0.42166876040316
C        -1.79933484014233      -1.21651751159203       0.77746285036359
C        -1.68279449934243       1.84788298328774      -0.76038314392386
C         1.92051370266073      -0.72713097725199      -1.65033420411859
C         2.07421809902122       0.83743816691695       1.52541617677999
H        -0.03998320642717      -0.64338795045153       1.85977035363525
H        -1.14548923309069       0.69823777524207       1.52248835924260
H         0.03409019840561       1.23152183849506      -1.87813899789062
H        -1.18361435990096      -0.04417316973248      -1.66522611348367
H         1.35713295465490      -1.48871944881588       0.28681584006573
H         0.12530477998477      -1.68291520722060      -0.97044867003473
H         1.69165808996845       1.57169648496588      -0.45183833385543
H         0.52478955555678       2.11232799169873       0.75415663791178
H        -2.38207887853564      -1.37767507843866       1.68456715321796
H        -2.47061723864754      -0.85139684717478       0.00325872634439
H        -1.38714045436307      -2.17457795806793       0.46545122716875
H        -2.13141811386931       2.23132759766254      -1.67682534932239
H        -2.47662132703860       1.44883077165795      -0.13046109536794
H        -1.20179816050543       2.68289220133336      -0.25706173416185
H         2.33375752846162      -1.68801513210858      -1.95784006442083
H         1.48121673772686      -0.24472401457676      -2.51979800701340
H         2.73351533453363      -0.10356702464375      -1.28636849235915
H         2.75132364764615       1.67642860122828       1.68736313665929
H         1.56134745460096       0.62713083259233       2.46314939066861
H         2.67234004352047      -0.02735646959751       1.24345478210034
S         1.61607849598346       3.50656270751291      -2.23543858588764
O         1.82920756078875       2.09505118456960      -2.56336142397744
O         0.66726453419223       3.69195628191710      -1.14374956919802
O         1.45406369983424       4.38250741892442      -3.36192945548783
C         3.23252298247017       3.97004012061912      -1.44935442126374
F         4.25671764113030       3.78661427358757      -2.27109543933212
F         3.42541048734659       3.17919750051482      -0.37705853902694
F         3.24574884006710       5.22675805195595      -1.02968251825019
