25
C9H10F3NO2 optimized with DFTB in AMS.
N         0.69200193316595       0.37891262516470      -0.12573502373146
C         1.95969534075922      -0.13908287597506      -0.65247773827768
C         0.40412898579650       1.70388152259112      -0.26921111702844
C        -0.05720214067258      -0.42468233692955       0.68039652434350
C         3.01799136699240      -0.20571235657475       0.44552953636380
C        -0.88617673754389       2.13941472018952       0.15002668346428
C        -1.23500423678411       0.01243355030714       1.20103730545567
C        -1.67390036498034       1.32215645974393       0.90216452718955
H         1.77456956520806      -1.13505655892480      -1.06732107090645
H         2.28635601689123       0.52350368429919      -1.45782564950703
H         0.89047980724228       2.20044418118109      -1.10279841607524
H         0.31340796761144      -1.43177793841601       0.82922755196831
H         3.18462265564972       0.78209814602664       0.87116006072261
H         3.95010939754787      -0.57410148387869       0.01895040425320
H         2.70113845280999      -0.88068286281572       1.23988136305664
H        -1.17838475571174       3.15427350068862      -0.08245088043100
H        -1.83412501886200      -0.64587468853481       1.81554264819980
H        -2.64157409451655       1.65678668285011       1.25512007904084
C         1.23710450145818       3.17114124311768       1.91139124397098
O         0.15369077589412       3.65753627733487       2.12149976727130
O         1.65814624388301       2.48678163921895       0.93550134972970
C         2.38740220760735       3.35983744080363       3.00099073413891
F         2.92825452943535       2.17161243643155       3.31911589018830
F         1.93092139269979       3.90886427783467       4.12552526536134
F         3.37579391091860       4.13563809566624       2.53757218843854
