32
C10H19ClN2 optimized with ADF in AMS.
N         0.49770871101897      -1.55095481573898       0.37587651607363
N        -1.59762710311936      -1.02594487387418       0.38589146259482
C         1.92483710048477      -1.51678934614370       0.73594161959422
C         2.72829013132478      -0.72935125142139      -0.29517662491109
C        -2.84343290466798      -0.33317500106400       0.73145942659601
C        -0.44337205297820      -0.88215713998385       1.06063562085040
C         2.23868768883382       0.71175434594136      -0.44883847498538
C        -0.05899579940067      -2.12457543398047      -0.75001336637224
C        -1.38302444164273      -1.79184750606559      -0.74697964142517
C        -2.92635348661913       1.04383149190074       0.07209768561702
C         3.14943726548008       1.53450646132547      -1.35661439978499
C        -1.84071498082326       2.00885630979302       0.54231171149749
H         1.96248907749075      -1.00831579373494       1.71725188438742
H         2.27371822367441      -2.55586256943523       0.83739481328264
H         2.71864775636190      -1.24790995467138      -1.27317572461299
H         3.77802313747320      -0.73273695622976       0.04963326807963
H        -2.86288907934983      -0.24497390148576       1.82839447326113
H        -3.67626906675846      -0.98338964510455       0.42183210609453
H        -0.17541170847435      -0.21350269062776       1.95423662741824
H         1.21518769479550       0.70411009395734      -0.86760227637487
H         2.15844320193442       1.16992985038250       0.55442327018674
H         0.51827297733987      -2.72764656766930      -1.43957109025744
H        -2.18282706620864      -2.04843888338761      -1.43077810300175
H        -2.88673032261909       0.91713993913082      -1.02558439228403
H        -3.92744199279280       1.44736336881163       0.30606563639835
H         3.20836139099690       1.10096509250400      -2.36964213946549
H         4.17306258201658       1.57797212959159      -0.94959503503257
H         2.78504980209745       2.56864169675271      -1.45159596864440
H        -0.83367142552269       1.67337388041332       0.25398339984888
H        -1.82865043249896       2.10891959345018       1.63952843265728
H        -1.99718488149624       3.00579803460545       0.10352611037115
Cl        0.88155598154903       0.95231236895832       3.04864208464283
