28
C8H14F3NO2 optimized with ADF in AMS.
N         0.79432764107333      -0.44764399161787      -0.10254402932644
C         0.31244730101364       0.78413484441658      -0.90177879864439
C        -0.36826395368774      -0.81937598703493       0.79525115787676
C        -1.15847840088275       0.97581302927118      -0.52614784671039
C        -1.59865667520419      -0.38754619702644       0.01914896595358
C         2.03083878356355      -0.13228999372330       0.68512778880722
C         1.10494536525164      -1.57266751207903      -1.05209968957970
H         0.48944452333268       0.56516746540901      -1.96068992085822
H         0.96438922600578       1.62673855519872      -0.64717572976204
H        -0.26580221767046      -0.22531637918854       1.71632518664208
H        -0.30195448541462      -1.88769804529451       1.03989484234932
H        -1.75522635377061       1.30858280676681      -1.38689863167930
H        -1.25750374904022       1.73712473489443       0.26477223343177
H        -2.48811150617511      -0.33318122252687       0.66288791868310
H        -1.81526608294700      -1.09339229874866      -0.79871148338135
H         2.79015707709914       0.17514545998812      -0.05420032787607
H         1.79454743816391       0.67561045558701       1.38912515420086
H         2.34006361788291      -1.03672375971232       1.22465514836441
H         0.18981565867291      -1.83515957218835      -1.59655350540774
H         1.89229991262636      -1.19134631503409      -1.72490154882199
H         1.46656797189325      -2.42721679101253      -0.46626989673591
C         4.10920250426979       0.41374355609511      -2.51678394561717
O         2.92484977949148       0.50693516738868      -2.05614623479523
O         4.65205589335658       0.94331270493123      -3.48916531474536
C         5.01537271938285      -0.53791399375543      -1.64725454809658
F         6.22540760475229      -0.80886100816792      -2.18988085769112
F         4.41014222754013      -1.76414103857430      -1.40468772941618
F         5.25022117902045       0.00796374983823      -0.39633718196392
