38
C10H20F3NO3S optimized with ForceField in AMS.
C         2.69488630470622       0.36535768269615       1.55339190231693
C         1.64521256955348       1.30058094067816       0.96819465354323
H         1.44927757984370      -0.78739389111919      -0.92069947738482
H         0.43255013757475      -1.67714854300109       0.26285617009070
H         3.18712796338639      -1.44715114064921       0.43803493396429
H         2.09597789741641      -1.68458673509820       1.86233023907379
H         2.63764919837534       0.37178408282031       2.66442484073189
H         3.71870836597948       0.66933390490875       1.24327225560475
H         1.35378429138019       2.08532518953885       1.70394978766542
H         2.11199301171160       1.82389734023094       0.10022414016147
H        -1.19528612066288      -0.49123799576373       1.47038899621151
C        -0.42428326373143       0.27793406917184       1.68972766312164
H         0.12611048895932      -0.07401230366453       2.59028634595575
H        -0.93885635479834       1.22837357628020       1.95331435471851
C        -0.19584362945109       1.16327484945079      -0.60779766101667
H        -0.31806597936475       2.24328625562166      -0.35933404216745
H         0.44260514633699       1.14349879592187      -1.52032883589233
H        -2.31114766976013       0.74117264453045      -0.12946926838155
H        -2.98823967009924      -2.09833920576987      -2.61594382163241
C        -1.64287113216364      -0.76393697353896      -1.56321093228884
H        -0.83073648371304      -0.89332796815407      -2.31071915491907
H        -1.51137819765219      -1.50311676469049      -0.74990590102249
C        -2.98353286096916      -1.05625765613587      -2.23257798039932
H        -3.15027356857413      -0.36443978803179      -3.08538186062270
N         0.49084904296236       0.47582790313990       0.53441289131948
C         1.11466143175660      -0.80948665881069       0.14154357285251
C         2.34537928370952      -1.00960039106260       1.01807608110274
H        -3.81227661642196      -0.94333084308548      -1.50116104732471
C        -1.61078416851230       0.65775931854753      -0.98672633108893
H        -1.99731268886180       1.35551529058093      -1.76265226533654
S         1.61784709918259      -5.84188219614278       3.67698765268617
O         1.01086059605094      -6.24442790504343       2.32498384979029
O         2.76430560832905      -6.84724873750575       3.85853217222986
O         0.56754812639113      -6.32093395676806       4.68959598463253
C         2.09257106365317      -4.09989652580400       3.82008549788543
F         0.98117316540575      -3.30368145637064       3.61898609410170
F         3.05225049206698      -3.81124148694080       2.86950677336861
F         2.60729169770409      -3.86388484756713       5.08002105014862
