48
C12H26F2N2O4S2 optimized with ForceField in AMS.
N         1.00134704069268      -0.31424595010795      -0.02465206422487
C         2.08075600877082       0.06206511495622      -0.98941093366988
C         1.65462856349192      -1.24809317309784       0.94294219727186
C         0.51816056672966       0.90060164557262       0.70901382780574
C        -0.10217807810949      -1.01898735474465      -0.75553779822555
C         3.29282959868564      -0.80853548650282      -0.71423475070871
C         3.15390642697787      -1.16998768317607       0.73709801287018
C        -0.22437255922665       1.93261204729511      -0.17327802829371
C        -1.29637282400237      -1.43491444103554       0.13787553073711
C        -0.54588208949620       3.20124999542973       0.62524267027595
C        -2.29104012179084      -2.29932089578160      -0.64546418709442
C        -1.29100159028430       4.21798986623378      -0.23483719957248
C        -3.46807828800607      -2.71636441556976       0.23171094733902
H         2.40978189303132       1.11942030630703      -0.86521198946537
H         1.77630418352854      -0.04645183548254      -2.05538585926570
H         1.36100356618158      -2.30901092240947       0.76731141440716
H         1.40744765244885      -1.02668278099385       2.00631185822081
H        -0.15862944627812       0.60721044086082       1.53849544382256
H         1.38170831232118       1.40848892765149       1.19886457018808
H        -0.48820223445817      -0.38678510848456      -1.58574675939628
H         0.30401653874487      -1.93242798534868      -1.24974552087003
H         3.24629049599282      -1.72819491538238      -1.33864734773272
H         4.24588138474336      -0.26993511404836      -0.90956925614974
H         3.58050831969007      -0.36208351230609       1.37197359519241
H         3.65639643640810      -2.13499054723920       0.96673966514870
H         0.39084019523545       2.20660241981344      -1.05583882142225
H        -1.18180612758164       1.50482899554177      -0.53669298691002
H        -0.94107559555027      -2.00458731919935       1.02226707706698
H        -1.83414115246881      -0.53365536038770       0.49927399538972
H         0.39556251288727       3.66471011708046       0.99312393246878
H        -1.17783734826379       2.94164148997070       1.50308708040050
H        -2.67769381126985      -1.72771657509571      -1.51765701759852
H        -1.78294250907455      -3.21451183313386      -1.02062501296085
H        -2.24568477944840       3.78580596102656      -0.60419704720268
H        -0.66540580698395       4.52037986922629      -1.10175136924694
H        -1.51982236819482       5.11986371767293       0.37081064382816
H        -4.00114598758474      -1.82010377318221       0.61526839053551
H        -3.11152434054683      -3.32646900466975       1.08905671160180
H        -4.17905891453930      -3.32435798837928      -0.36633486021627
N        -1.75690391162726       0.73108524094501       5.92294046340286
S        -1.06866418229516       0.49541498147356       4.45680412526254
S        -0.86098292728868       1.14733485591209       7.22774234401935
F        -0.23465436794912      -0.95603280437854       4.46166251831166
F        -0.29335686184597       2.71062505243462       7.03702005959477
O        -2.13812003419468       0.44946297545473       3.40313865243655
O        -0.10541333216319       1.60922017251003       4.15607500822245
O         0.31176595785084       0.21723123424356       7.36116012820709
O        -1.70979817478962       1.07318952952525       8.46464634389869
