29
C9H13F3N2O2 optimized with ADF in AMS.
N         0.14600485499080      -0.31203806568689       0.52676491722361
N        -1.61899930821565       0.50260796824044      -0.45086052848977
C        -0.79810565267570      -0.55452908286479      -0.39092183975938
C         1.16018472601172      -1.31194116503868       0.91258310925980
C        -2.84800449622676       0.56380266507956      -1.25267296176277
C        -0.12078794271477       0.90354254315868       1.12139153120274
C        -1.22764853171201       1.41540151022652       0.51191182835298
C         1.97828303489657      -0.87867439323994       2.10926787143235
C        -4.05108477084241       0.03689248299242      -0.48653461847868
H        -0.88316913665792      -1.45585370803762      -0.98032856361337
H         0.58414435324408      -2.21527035029412       1.16906737822209
H         1.79485597654227      -1.48510303264038       0.02858996784408
H        -2.97305673869148       1.61225591816669      -1.56393568797513
H        -2.65821867603482      -0.02838444086546      -2.16070739117611
H         0.46977732753013       1.28152144197911       1.94309553635348
H        -1.77379414570927       2.33349033349093       0.68486634788844
H         2.53013372448899       0.05576905452965       1.92503550159995
H         2.71599011312889      -1.66483831138546       2.32534343402666
H         1.32184326271506      -0.77778861912090       2.98532422016340
H        -3.84630379494840      -0.97867449613099      -0.11548896263459
H        -4.92931806571664       0.02933545530151      -1.14945909059519
H        -4.27302902348573       0.66789770894428       0.38562135486722
C        -2.06047511156937      -1.72181001113933       2.19864791395690
O        -2.24168127420884      -2.10875212874818       1.00984765866276
O        -1.01253676751204      -1.60519520525084       2.86736560987284
C        -3.35489977588231      -1.24574202143242       2.94579340655822
F        -4.51693235873944      -1.71747498937817       2.40378946314955
F        -3.43791068743598       0.13836529659611       2.89247835193051
F        -3.36501861476897      -1.58730236795173       4.26307068161740
