30
C8H12F2N2O4S2 optimized with ForceField in AMS.
N        -0.48593975966909       0.00168411686296      -0.41155987978421
C         0.93774951112197       0.01489091404431      -0.76985054988231
C         1.79788085110469      -0.02220556602109       0.49533599475095
C         3.28445477555704       0.03018068849992       0.16087753591221
C        -1.14912437353560       1.18326190563507      -0.22200757801518
C        -1.13450178464036      -1.19176500987690      -0.24758397611194
C        -2.50034567758806       1.18912462247439       0.13257366241256
C        -2.48624018356060      -1.22153493174014       0.10449610924490
C        -3.17050429791867      -0.02212456204490       0.29454453128681
H         1.17973828794525      -0.85933599275306      -1.41515037500599
H         1.17674091683454       0.92730138150558      -1.36122163661428
H         1.58870135400794      -0.95983729966068       1.05291184796903
H         1.54129942482033       0.84351173380053       1.14406161829783
H         3.57292520196264      -0.85480189769162      -0.44534032262482
H         3.87566365237553       0.02593146621645       1.10095417029516
H         3.52131354198556       0.95701120369105      -0.40380164985299
H        -0.63396019005447       2.12922447078987      -0.33936601896958
H        -0.60725495273274      -2.12845609301269      -0.38367480703387
H        -3.02138086276418       2.12594470392698       0.28197795930304
H        -2.99589038552129      -2.16733505840947       0.23484303698698
H        -4.21698766674415      -0.03119520516507       0.57096189824844
N         0.75553957406847      -0.67850525210082       3.60032715821298
S         0.82656984473378       0.62666848605343       4.58297178244196
S        -0.46888878591536      -1.75725386823915       3.70330088857393
F         1.36906044876470       0.14812517946848       6.09214013376357
F        -1.90052134065667      -1.01941912070880       3.24933228639957
O         1.78078336237053       1.63537747105423       4.00975442697765
O        -0.53757513832478       1.24120086496176       4.72668838650972
O        -0.60165507601009      -2.24123670367399       5.11988519104621
O        -0.19253540801684      -2.92041699278664       2.79370572136166
