53
C15H29F6N2P optimized with ForceField in AMS.
N         3.07971745098681       0.91471498345627       0.02561518608824
N         2.91720009031147      -1.29777771797873       0.19591808180472
C         1.47706736087193       2.77465662513931      -0.24462921826827
C         2.83873433750063       2.32836408159223       0.31069351233260
C         0.99936444862998      -2.62770837224960       1.01750721730315
C         2.50245144619428      -2.60846896305456       0.69568670479939
C         0.31094568401030       2.08825071304530       0.48327543866501
C         0.14011343130394      -2.30033615043582      -0.21407910147354
C        -1.04471071655664       2.54213945816827      -0.06773642572950
C        -1.35252912366602      -2.28624451383642       0.13552640944952
C         2.82136222911139      -0.12159786937971       0.84684104472020
C         3.36087208202402       0.37597180025606      -1.17752703797754
C         3.26710856821731      -0.99640770037096      -1.07083087093942
C        -2.19086754609064       1.85745323162755       0.68757259973124
C        -2.18734588186990      -1.78668793636019      -1.05071416844620
C        -3.54272336041051       2.17176109577931       0.05613887807314
C        -3.66916634220689      -1.71460149902850      -0.69531673396200
H         1.38840252704205       3.87565790990879      -0.11907787012920
H         1.42950690738592       2.54892832886588      -1.33257374358355
H         0.78934710236152      -1.89488793759803       1.82698344249491
H         0.72975393265260      -3.63735625050693       1.39648904180213
H         3.64471577888709       2.93773264734611      -0.15278827731278
H         2.87394889669042       2.50774748548339       1.40788711722315
H         3.07842198870714      -2.84603123712937       1.61561274793766
H         2.72820453820264      -3.39466354273186      -0.05818217547828
H         0.36608192339324       2.32142403286132       1.56945283371603
H         0.38851171270473       0.98828455452957       0.35506142974826
H         0.32722173695301      -3.05592922735414      -1.00833851352821
H         0.42341243599665      -1.30134439981086      -0.60888848378188
H        -1.14149621446279       3.64507793063542       0.03965581908543
H        -1.10310521981858       2.28303017300052      -1.14807295634617
H        -1.52074621520641      -1.61866410085777       1.00871378744968
H        -1.67542935126383      -3.31408354882547       0.41212528731904
H         2.47788966502553      -0.01688865924259       1.86864628752162
H         3.55281992791408       0.94059283538337      -2.07953745376215
H         3.36788814447278      -1.71359460711168      -1.87528812676064
H        -2.04367082480259       0.75764336636216       0.67842742329227
H        -2.19680023761437       2.19782568115195       1.74595099310545
H        -2.05599860466802      -2.47177182001567      -1.91643380760501
H        -1.84479667686821      -0.77242908389819      -1.35195403230599
H        -3.73632152820866       3.26484058621140       0.08264936238792
H        -3.56826559763455       1.81632867069753      -0.99624057230587
H        -4.34443479654087       1.65282832686887       0.62288934608485
H        -4.23904271748607      -1.32013391458195      -1.56292763780945
H        -3.82816317497842      -1.03562937934926       0.16920866486951
H        -4.05485974078112      -2.72509370203400      -0.44378496544993
P         2.88594229951872       0.83269346684341      -6.00408061395355
F         2.21609889321133       0.18378938963209      -7.44593444986154
F         1.34199773288482       1.41542723790400      -5.52934127582643
F         2.53813307878317      -0.58757480654529      -5.10346222455866
F         3.61730272095127       1.59170098337471      -4.64937990786183
F         4.40110330757213       0.13947386930965      -6.41937566815391
F         3.21291565766217       2.27280670125313      -6.88038822983362
