54
C14H20F18NP optimized with DFTB in AMS. Optimization did not converge!
N        -0.55977645758016      -1.44184283340596      -0.13671161039497
C        -2.06846620911329      -1.46943769358635      -0.13390073805046
C         0.00037025282958      -1.73042080908114      -1.51111924905776
C        -0.05682463479961      -2.50358026521244       0.81215777834519
C        -0.10789378358150      -0.06708600591908       0.27346975406186
C        -2.68842681030585      -2.78044731251666      -0.58877375959013
C        -0.57241099986042      -0.89154750451112      -2.64085464237614
C         1.43629043855347      -2.45658542132559       1.09407152104537
C        -0.47307291691718       0.34655877139181       1.69207285784608
H        -2.38442993938806      -1.25737365564020       0.88977354883662
H        -2.40237738636878      -0.64801330081835      -0.77201208344062
H         1.07884398226300      -1.57347542945641      -1.44824006966193
H        -0.18031384146150      -2.78438095670586      -1.71040609125825
H        -0.61858356460407      -2.39877295158065       1.74290826102137
H        -0.30700479742630      -3.46670931802888       0.36328187187132
H         0.97629712283565      -0.03428674040007       0.14603209385467
H        -0.55641970035205       0.63541190201919      -0.43222751253507
H        -3.76884187759299      -2.64011105172668      -0.61879568681044
H        -2.34897120143416      -3.06885021863333      -1.57845707720304
H        -2.47122899680440      -3.58942455238871       0.10501192044040
H        -0.05134093212030      -1.19296102120412      -3.54933809916044
H        -1.63420421459348      -1.07825722319608      -2.78885116290779
H        -0.41215909722963       0.17528056326066      -2.49169290713206
H         1.66033875143612      -3.28918575743561       1.75922960800885
H         2.02121363846983      -2.58699178716774       0.18653812227343
H         1.73621757795307      -1.53383907951124       1.58713685441692
H        -0.05663058830132       1.34073474144655       1.85702235205601
H        -1.55100068432681       0.40332793577978       1.83566384308004
H        -0.05124039841891      -0.32587453066901       2.43684757929872
P        -0.52184306647067      -6.22267217422368      -2.34937187105276
F        -1.81710792128030      -6.54902221043767      -3.33291463065621
F        -0.92534368396099      -4.54950513124024      -2.31123276706360
F        -0.08997771854146      -7.83032035976456      -2.31609338946518
C        -1.82736490178096      -6.41160130249074      -0.89332969441427
C         0.52646002801289      -5.88074719505595      -4.01894400836066
C         1.09691075989156      -5.83579461869839      -1.16896486543664
C        -2.39458305883591      -7.80449011432546      -0.51253447338257
C         1.28383182960179      -4.53448364973217      -4.25321903512118
C         1.34491188525165      -6.35507373525429       0.28047477816843
F        -2.90956454138550      -5.66871112563394      -1.20643881018492
F        -1.32122061842259      -5.85310230901484       0.23493446132866
F        -0.32031907101862      -5.93862412645963      -5.06255126014478
F         1.43192900953313      -6.85389666041081      -4.20662809775456
F         1.26060024568990      -4.48066824069737      -1.07647860751966
F         2.14396541523092      -6.29406169181697      -1.87717747990759
F        -3.26686536877716      -7.66961658184258       0.49406578327344
F        -1.45084912039394      -8.64927347849014      -0.11791789182158
F        -3.03813372384151      -8.34166821976315      -1.54183624210211
F         1.71913664695926      -4.49407288743138      -5.51202306057294
F         0.48228155974443      -3.47058324581283      -4.08265156598991
F         2.33651425599326      -4.35847906870607      -3.46187370421859
F         0.92162307476158      -5.45681776548898       1.18524846255185
F         2.64803006447946      -6.52739639560034       0.49590741339304
F         0.73530687309986      -7.50464112648428       0.52380781587657
