44
C12H11F18N2P optimized with ForceField in AMS.
N        -0.51862628578109       0.17073235267068      -0.34565747168779
N         1.67203025880540      -0.06769077794401      -0.05118810828178
C        -1.91442788250269      -0.12944880306806      -0.65501621715085
C         0.52497779803405      -0.67996502643705      -0.40345866107162
C        -0.01335682904692       1.35727287804706       0.04939577152325
C         1.34653826922642       1.20850921033564       0.23239827776726
C        -2.74530140418190      -0.16959483895792       0.62235994453239
C         3.00029008594669      -0.66159952119890       0.02603756828191
H        -2.31836425137262       0.64438632776457      -1.34319904514965
H        -1.98872434498797      -1.11557424085389      -1.16351227306550
H         0.44907831899736      -1.72295568310717      -0.68674071719883
H        -0.58880423624314       2.26283529759948       0.19211992173486
H         2.04324323700757       1.97254619447919       0.55180500368817
H        -2.35281306562136      -0.95354301129471       1.30459308373170
H        -3.80132494099945      -0.40613606261877       0.37376309733194
H        -2.70982166519595       0.81378034425511       1.13688866138508
H         2.96226041590323      -1.73803334176861      -0.24677134524413
H         3.68512096553493      -0.13693151680776      -0.67271063336342
H         3.39083964038367      -0.56806620875063       1.06126740959564
P         8.02942811361782       4.36633924134192      -1.44286990645681
F         7.95310858455785       5.83688118636382      -0.55053180827192
F         7.28830101420421       4.52205847144566      -2.99133383120183
F         9.06982456075707       4.06324476038076      -0.10702428109117
C         9.31269675236940       5.45249754244467      -2.41017470414968
C         6.24912144926181       4.45216521857693      -0.68587129358247
C         8.33472131780786       2.46511524513682      -1.60631769263897
C        10.52617548189575       6.00964027830030      -1.61719953611219
C         5.25006826229282       3.35313474278595      -1.10589518984636
C         9.71473627529120       2.01586691325950      -2.12602977314152
F         8.65755426200047       6.55610528647357      -2.94299577976326
F         9.81346319558466       4.73552669593339      -3.47833924583866
F         5.64986124526909       5.65871789306166      -1.03699824039372
F         6.34879831422076       4.40345066850788       0.69777919717158
F         7.41120727063245       1.94397237322094      -2.49422504432141
F         8.12104246954169       1.84853445516156      -0.38119014622408
F        11.39104688895211       6.62344077415383      -2.50604994133193
F        11.23010169124206       5.01904700377792      -0.96712744651725
F        10.13535486371151       6.96145246458960      -0.69270934053274
F         3.99983970406857       3.67787102651062      -0.60895132794165
F         5.14410592915351       3.26116616511897      -2.48092466144317
F         5.59558442944134       2.12496847208113      -0.57845966484792
F         9.83703694112506       2.27066963426265      -3.47872979091098
F         9.83406523891681       0.64813321291361      -1.95127291228369
F        10.74806791217791       2.61697139725209      -1.44269113258682
