27
C7H10F2N2O4S2 optimized with ForceField in AMS.
N         0.16211228691824      -0.00373610275363      -0.37059022111175
C         1.60560885365116      -0.00196461553758      -0.63563006084159
C        -0.50879496607022       1.18313354690660      -0.25485534551952
C        -0.50003592859088      -1.19212129833634      -0.22324298068565
C         2.38483081502553       0.00709620130197       0.67508182766930
C        -1.88006177156589       1.19903662931677       0.01044668622209
C        -1.86967534740048      -1.21127254725082       0.05171497328772
C        -2.56084423736104      -0.00650638376608       0.17003498368457
H         1.89300917028660      -0.89769147234223      -1.22957445504449
H         1.88964623244575       0.88860851153470      -1.23891828284318
H         0.01566169382728       2.12528829610108      -0.36361344926044
H         0.03067937036344      -2.13281649980437      -0.31229781810821
H         2.13276633069590       0.91495265061384       1.26322803638470
H         3.47460372847610       0.00834491990204       0.46262691417290
H         2.13688678245422      -0.89501418025950       1.27368771567866
H        -2.40886269421697       2.13890207811229       0.09108530107630
H        -2.38887102718529      -2.15316587136045       0.17261765820787
H        -3.62151905781605      -0.00675070455758       0.38619690629438
N        -4.67225134155334       4.79680366602546       0.90503475002895
S        -6.06028825969822       5.65575841721702       0.78424474469680
S        -4.25951325889938       4.03767869452243       2.29502184694729
F        -5.88849717132103       7.09995805790227       1.61446657470769
F        -5.18313574525732       2.65033240878914       2.45840826826615
O        -6.35081376818568       5.94235123461142      -0.66114737588789
O        -7.19891694848784       4.88075335257555       1.38524541363082
O        -4.51834942949055       4.93807248098170       3.46990099285582
O        -2.80465921684405       3.66788143005426       2.25468561019071
