35
C9H17F6N2P optimized with ForceField in AMS.
N        -0.02514218864211      -1.33393150500560       0.34340224142881
N        -2.03989626581775      -0.40058985113062       0.22632196212200
C         1.32684692444469      -1.64693754352214       0.80217076260896
C         2.37463042169120      -0.87455085791875      -0.00919375196231
C         2.19799951662537       0.64460804165480       0.13064184513964
C        -0.92906456131590      -0.55717405154192       0.97205323883486
C        -0.58384427296061      -1.68325622556055      -0.83330224936558
C        -1.83428390881962      -1.10379641588974      -0.90594899444715
C        -3.19912759327146       0.42791461008235       0.54605100466314
C         3.29044999417937       1.40028345980759      -0.61632320788128
C        -3.15332929602646       1.72924242616439      -0.24576400375506
H         1.43404683884778      -1.39241208966725       1.87978961850998
H         1.50707145025661      -2.73878152231777       0.69691575356969
H         2.30185467441572      -1.16582574776082      -1.07991057684771
H         3.38441612114315      -1.16295148308226       0.35715665174412
H         1.21355170088327       0.95182400626569      -0.28497395888113
H         2.23125820667697       0.93089894705824       1.20425443144087
H        -0.76254571819030      -0.07764152890842       1.92868832189683
H        -0.10933001451198      -2.29495687897562      -1.58976887432762
H        -4.13219923228564      -0.12639341041563       0.30726070821291
H        -3.20732485554219       0.66752670230434       1.63187641074428
H        -2.53352849526529      -1.17564714455393      -1.72900992652610
H         3.26152997794413       1.15069655767064      -1.69820940230462
H         4.28913452984282       1.14390005341800      -0.20364088299305
H         3.12792138107144       2.49117245412950      -0.49901492677828
H        -2.22795421267439       2.29153524047042       0.00267166761498
H        -4.03332977282214       2.35550124630351       0.01207295579620
H        -3.17071261068907       1.51686465196047      -1.33587893039935
P         1.70181632198581       5.85767709947652       0.03835584495857
F         1.50359294332109       4.43653387018746       0.98306059366716
F         2.99941707312584       6.33170912701520       1.05907743623785
F         2.81791528567941       5.06426513496262      -0.99753060906795
F         1.89794800106912       7.27432562980063      -0.91272749919510
F         0.40349977170548       5.34235624643979      -0.96120738903802
F         0.60364100002566       6.72569657177884       1.03381090357943
