29
C9H13F3N2O2 optimized with DFTB in AMS.
N         0.87204250589605      -0.65649614297871      -0.61724029143749
N        -1.18792485772284      -0.41308230094201      -1.18917161187723
C         2.30761507783952      -0.43043894843432      -0.49905371342934
C         2.67875617692055      -0.01292694646750       0.92465636257621
C         0.00050863134718       0.18398651650566      -1.17236894143130
C         0.22786668577427      -1.82431069766103      -0.29295890713756
C        -1.06788197379084      -1.67244745127197      -0.66381587345780
C         2.05009932775315       1.32321334827011       1.31459195499001
C        -2.32097139613862       0.05419660159200      -1.97049303120192
H         2.58128714635382       0.34109315408076      -1.22288448286093
H         2.80782201371978      -1.36266336237720      -0.77309677425748
H         2.35873987424097      -0.79114809146636       1.62419785733490
H         3.76813875591988       0.06338461602230       0.97740456957721
H         0.22155225983063       1.16669538724003      -1.54826535249746
H         0.74813006618952      -2.65949037516751       0.14084116196242
H        -1.90012332529094      -2.35244971328362      -0.62258885064281
H         0.96150585740493       1.25672662264503       1.28860588291394
H         2.36752953037882       2.10959705514878       0.62881645101720
H         2.35647531893980       1.59644534552061       2.32378584019609
H        -2.12865126283982       1.07817714013379      -2.28196588003089
H        -2.38986642431443      -0.58701809599625      -2.85322321446291
H        -3.23399429802047      -0.00556825782429      -1.38000992248826
C         0.15746182052026      -1.17086800857048      -3.66435346188174
O        -0.75932624327226      -1.97751250303580      -3.60252030974916
O         0.17542490219828       0.06125000176453      -3.61842110169412
C         1.64076742994036      -1.83599328270863      -3.66418364245316
F         2.60137095186348      -0.91152003342066      -3.43908004276947
F         1.98039119447569      -2.49554711402819      -4.77526883024482
F         1.74935964078323      -2.71619820808907      -2.63194384976209
