37
C11H23NO2 optimized with ForceField in AMS.
N        -0.41339423930421       0.17104509840610      -0.06543222241172
C        -0.98953545517674      -0.87747512145781      -0.96252483264266
C        -1.46742572990022       0.42183113396718       0.96521152896212
C        -2.45294877648134      -1.06047662653412      -0.60810813932040
C        -2.52706875006080      -0.65522349314435       0.83702997993810
C         0.82663840173185      -0.34457794466152       0.60184294060485
C        -0.15655925122332       1.41940043257719      -0.85454070175591
C         2.00674804837920      -0.61567300527193      -0.36299329486768
C         0.46574844067714       2.57070308540053      -0.04281716324044
C         3.15599162959203      -1.31388445778075       0.35858968812458
H        -0.49981717760679      -1.86864008430071      -0.82225874285919
H        -0.89164460318910      -0.63237897187400      -2.04476988013323
H        -1.98279183611262       1.39799570167367       0.81245968402623
H        -1.07013197071304       0.43917215239117       2.00551411240438
H        -2.78695870212628      -2.11123708465523      -0.75383988598881
H        -3.07982519029529      -0.37994975426946      -1.22562388053088
H        -3.53826302865561      -0.27582003822419       1.10082841088338
H        -2.26926395249217      -1.51919753302592       1.48846263714726
H         0.58896192127255      -1.28883136599908       1.14567553647033
H         1.17366612259613       0.36691826816516       1.38397670384039
H         0.50775575950068       1.21026009180107      -1.72175505829334
H        -1.10970217954652       1.78974112082182      -1.29755191653246
H         1.68865428413579      -1.25342975496393      -1.21373397125385
H         2.39759053342084       0.33798348946669      -0.77422298302402
H        -0.11291718777247       2.78396967372272       0.87877764236923
H         1.51650726342496       2.34546901388158       0.23082159969513
H         0.47447240849309       3.49080056421193      -0.66407968147238
H         3.53396598640580      -0.67694160511646       1.18668327632901
H         2.82042260470634      -2.29041159137756       0.76790229825343
H         3.98647364376430      -1.49673129165468      -0.35563563847649
C        -4.62327208269767      -0.51380884951660       4.32207049730218
C        -3.70663402700971       0.65166405763256       4.12028638342430
O        -4.07468935383324       1.60891494088242       3.45895305418468
O        -2.59031503298304       0.64983731392539       4.61315922575805
H        -5.54834774208021      -0.17682615835547       4.83517662661248
H        -4.89158239461208      -0.95234541393025       3.33834829329545
H        -4.13395347332823      -1.29570761851316       4.94139952837792
