26
C6H14BF4N optimized with DFTB in AMS.
N         0.62642297705260      -0.16495477744739       0.38904414179571
C         0.00350390781338       0.71255033471975      -0.64679730044602
C        -0.38986232084676      -1.24186203945568       0.61599725522998
C        -1.48241063131527       0.74643797301537      -0.29740269499518
C        -1.74484364368511      -0.55333330625375       0.48204115825581
C         0.86248882953502       0.59463630295507       1.64750370702648
C         1.91727853182093      -0.72476985372435      -0.08743955365683
H         0.16742528099607       0.24457477802895      -1.62039983910894
H         0.48133719787153       1.69267555874204      -0.63216735944104
H        -0.22293845790866      -1.68659222109554       1.59759801811002
H        -0.24253382588947      -2.00260195407072      -0.15257055997476
H        -2.08295925767367       0.80150311270420      -1.20682479488543
H        -1.71462568012219       1.61998632940680       0.31539548262002
H        -2.16708528739865      -0.33287641194764       1.46430742641858
H        -2.44498560196958      -1.20078681279976      -0.04850456092659
H         1.54790783156832       1.41438948002948       1.43919744694316
H        -0.08379963331983       0.98225490365689       2.01654879180210
H         1.30052358327093      -0.08331094451424       2.37953612915968
H         1.74373319864959      -1.29249193828000      -0.99946100151614
H         2.60355054264823       0.09751372281192      -0.28142634192185
H         2.31612177215196      -1.37687625226111       0.68881171206455
B         1.79484550720950      -2.50680243385320       2.90541691116104
F         1.47764983570718      -3.06635700443373       1.63982040186245
F         2.23221823797373      -3.44534374089024       3.78592158537390
F         0.62384777847970      -1.84579352329291       3.36492055760764
F         2.76543377348050      -1.49618291125022       2.67119108854170
