49
C13H28F6NP optimized with ForceField in AMS.
N        -1.54662093508201       0.09543125311677      -0.08359470247412
C        -2.56004118464973       0.48878695297445      -1.11654864953640
C        -1.78495658007024      -1.33226885736634       0.30741310233576
C        -0.20093255449712       0.19246058048712      -0.74672236361025
C        -1.62633501919126       0.97147056648010       1.13681398323120
C        -4.01883632026811       0.26940733046617      -0.68240852458143
C        -3.22740683914424      -1.62352516947937       0.76637280046606
C        -4.24523571778769      -1.18401140330747      -0.28139539364905
C         1.02162137490516      -0.12127565186393       0.15263237180547
C        -1.27087746864989       2.45386743515274       0.91973209237528
C         2.32472404938219       0.04171935158395      -0.64161664636953
C         3.55035889821331      -0.29163938993291       0.21753695669652
C         4.84619285457979      -0.10022935207127      -0.57999185512406
C         6.07240628485497      -0.45524880788632       0.25592627393554
H        -2.40856958911114      -0.10748737358956      -2.04768133035237
H        -2.43600895855528       1.54767112938917      -1.42584530687877
H        -1.11536357766093      -1.63349592284867       1.14180295100237
H        -1.56051176181057      -2.01342542779935      -0.54641798340753
H        -0.06112404169494       1.20416900358977      -1.18971243057409
H        -0.15767305056726      -0.50518219223798      -1.61602707851724
H        -2.63965083428201       0.95284088077800       1.58115719464388
H        -0.97053588307132       0.57586385266148       1.94051571221302
H        -4.68866224502872       0.51045884514494      -1.53597856847992
H        -4.29958553753982       0.95190708141010       0.14504950165070
H        -3.43949969511532      -1.13015964992595       1.73751597133498
H        -3.33892694890788      -2.71750413512120       0.93113031092993
H        -5.27163798866747      -1.29892959831189       0.12845689343341
H        -4.15662564649619      -1.83507526967487      -1.17932565006457
H         1.06088022178332       0.56792314807024       1.01998003787978
H         0.96847559272696      -1.16440901060674       0.52552395409984
H        -0.22659169310171       2.58532222475044       0.57493948906985
H        -1.96988324292498       2.94306910720570       0.21404591355101
H        -1.35922201630468       2.98903394662287       1.88907366763140
H         2.40375015672137       1.09133085276604      -1.00176516241714
H         2.30352184523686      -0.63388595330821      -1.52504794364979
H         3.48081796801077      -1.34718294169402       0.56175723175494
H         3.56743855117780       0.37262599945011       1.10946861814315
H         4.83117619576488      -0.74761912116128      -1.48362176632318
H         4.93142965566712       0.95894373874812      -0.90682719836205
H         6.03380244683658      -1.52133789431662       0.56636554374225
H         6.99087779699492      -0.29594462547715      -0.34871245589762
H         6.12648989876736       0.18984893955464       1.15884979490525
P         1.20235198017780      -0.08010213573291       4.84437391638617
F         0.05832221717905       0.10584140561896       6.11241828664223
F         0.14493059529108      -1.21027777353227       4.09842305628771
F         0.47772452183570       1.23719369075418       4.01458812438923
F         2.29382826804179      -0.34618976085022       3.54515012745755
F         2.27478743446914       1.05990690562582       5.55214772403915
F         1.98152323626263      -1.30011362680539       5.76947352393546
