46
C14H29NO2 optimized with ADF in AMS.
N         0.02129038374817      -0.26758513691547      -0.26040617547318
C        -1.22197642959608       0.56517875102814      -0.07568411222736
C        -0.33158635889051      -1.74733433927081      -0.18617502191012
C         1.00523076834278      -0.02088952176295       0.88276666137483
C        -2.31516014123087       0.21136175771687      -1.07351306637843
C        -1.44490810112500      -2.14327859660373      -1.14150190803579
C        -2.68848000929007      -1.26865823903710      -0.96819850987734
C         0.69326271284699       0.03295797292072      -1.57195993164720
C         1.74787209057839       1.29878234554636       0.82788336643560
C         2.60595467111600       1.46080807197695       2.09201701899447
C         3.76764534445439       2.43782148582537       1.87896680510312
C         4.92379626863232       1.81017682168014       1.09638070404064
C         6.01955614811853       2.81475320841891       0.74891032745532
H        -0.91843638019994       1.61879713887314      -0.15043536522961
H        -1.56825468343752       0.37208284453525       0.95297683614287
H        -0.64736497129002      -1.91534870135572       0.85719694991900
H         0.63082382854644      -2.27173756111114      -0.35328666806430
H         0.41308351190896      -0.12170038485377       1.80809645747423
H         1.72286316916889      -0.85999374686498       0.79408608335350
H        -3.18472965668728       0.85567510823595      -0.86249358841253
H        -1.98951623779079       0.45655173377224      -2.09890561221682
H        -1.09336488986822      -2.10654042167872      -2.18629596225500
H        -1.67861605371962      -3.20249196353453      -0.94285610214807
H        -3.13473855087555      -1.45783283663344       0.02578577226939
H        -3.45613587905625      -1.52688742820534      -1.71533531653284
H         0.69947771591375       1.12141435836387      -1.71432133130778
H         1.74398144645443      -0.34468141243513      -1.51492337611739
H         0.12881185611979      -0.44163807318286      -2.37949963672991
H         2.41316316848005       1.27829522377242      -0.04761477616006
H         1.06670385712494       2.16459243629839       0.74461668913336
H         1.96758552310318       1.78793778740274       2.93098160829871
H         3.02397845745336       0.47768925449165       2.37683637999733
H         4.13971871340560       2.79354154897171       2.85687004658775
H         3.39866533129238       3.33582906315216       1.34678490285409
H         4.55146887010913       1.32299845820793       0.17821680598237
H         5.35117841753990       0.99232469380708       1.70510395487655
H         5.62593984616590       3.62523950086334       0.11337928238156
H         6.44168963864166       3.27982643733696       1.65595371846938
H         6.84294512015508       2.33114529858951       0.20172360301110
C         5.00966505955515      -2.42486678125705      -0.58792282523342
C         3.62841169023703      -1.76126533640033      -0.63091565785754
O         2.66187197037421      -2.43327752730105      -0.14606235810717
O         3.55895160181232      -0.59637053236586      -1.13189097837980
H         5.77660435050897      -1.77877658864282      -1.03537676442101
H         5.27688712583234      -2.64935588526502       0.45649035403362
H         4.97799346691670      -3.38652006910996      -1.12284143106610
