38
C8H20F2N2O4S2 optimized with ADF in AMS.
N        -0.23629956009363      -0.16953448170512       0.02951470300629
C        -0.97018421849750      -0.35240490221483       1.35413865661967
C        -1.21380295711491       0.15755512872516      -1.09336894558786
C         0.48151189141776      -1.47339720627136      -0.30941001737201
C         0.75065407384066       0.97443715077877       0.17260095038548
C        -2.13306508348250      -1.32242705701615       1.33121072199864
C        -2.04312860215852       1.40811316951109      -0.88616913206063
C         1.36529593719886      -1.42876876057711      -1.53835579636753
C         1.89687184740948       0.73429200634795       1.13734920724781
H        -0.20337799540266      -0.68667384929765       2.06699429957846
H        -1.29706796708748       0.65356445641030       1.65740393743787
H        -0.60457219816442       0.24099603225540      -2.00267079665913
H        -1.86224016995177      -0.72139484412890      -1.21028315864129
H         1.05866010369754      -1.73405495016864       0.58968645615631
H        -0.30115439769786      -2.22950737980504      -0.44315500713948
H         1.12688787268979       1.17873751003235      -0.84020164709636
H         0.15942391501648       1.84338253291450       0.49098602256238
H        -2.52366926435243      -1.38884778107417       2.35869622571590
H        -2.95408903885689      -0.99734072801800       0.68030169982568
H        -1.84754014272276      -2.33536564618659       1.01984211530485
H        -2.73427016790962       1.47460798857342      -1.74095295962648
H        -2.66335299178112       1.36240502003770       0.01955911099985
H        -1.44919395335811       2.33231205394235      -0.87382682842946
H         1.81742050684129      -2.42738675679533      -1.64147388528722
H         0.78710070860807      -1.26473509244877      -2.45635047950537
H         2.18388091956036      -0.69877301148592      -1.46355872057158
H         2.51310397376457       1.64596800127541       1.16228024541756
H         1.55520423695880       0.54797743940720       2.16431075718879
H         2.54773109978303      -0.09186848180374       0.82188978702963
N        -3.02249270880142      -4.46009963434640      -2.92008039354237
S        -2.39701065328887      -3.22217023104383      -2.18505963152092
S        -4.32181362672295      -5.22242240280147      -2.29201597861693
F        -1.59782848629360      -3.89718439205274      -0.83719569484368
F        -5.52876042792587      -4.14720188934354      -2.62974774574966
O        -1.27868356258205      -2.69431276195079      -2.95716846832409
O        -3.29701243606348      -2.26279571543487      -1.54366043209023
O        -4.32497687258880      -5.32770147166335      -0.84640837657710
O        -4.59375207228749      -6.36203477177726      -3.13683842216579
