37
C9H20F6NP optimized with DFTB in AMS.
C         2.72629793296821       0.29396480722097       1.38885076023898
C         1.92900576112538       1.10261184152901       0.37975157435265
H         1.06775497426488      -1.52712246692335      -0.64274036686742
H         0.22637110092692      -1.60941629437579       0.92230552471303
H         3.10518390732135      -1.56929563711903       0.35641483711763
H         2.33721833570683      -1.77989377844319       1.94167046614674
H         2.43642693960139       0.54410414914213       2.41308801776501
H         3.79355191386617       0.48584881551831       1.27496947839797
H         1.71885994494327       2.12691682619425       0.68814053127075
H         2.42932293171087       1.09914951548856      -0.58961996018305
H        -1.18811749857570       0.12926951169367       1.26371743219503
C        -0.29457988777929       0.74716042266020       1.31003903110227
H         0.19791085701190       0.59746427712084       2.26845279346792
H        -0.56218576686246       1.79583857823249       1.18997508679541
C         0.05712747956757       0.70529266222387      -1.12671888465002
H         0.03287253704796       1.79848456534587      -1.15895004911552
H         0.76829730267521       0.34714541996087      -1.87236863014435
H        -2.05792061492245       0.47105876200581      -0.67518270495465
H        -2.81399097547756      -2.78155350484204      -2.48396376605042
C        -1.42274555811918      -1.33811313062924      -1.69422534978843
H        -0.61279435652863      -1.64153737114580      -2.36246916672498
H        -1.31442508543983      -1.88212565035511      -0.75123248814449
C        -2.76443189148544      -1.70456618723442      -2.32582910192147
H        -2.88184905941844      -1.20687214262472      -3.28892536464340
N         0.63442246953611       0.35417497075701       0.22067669215184
C         1.00578898241515      -1.09913685864717       0.35582791913010
C         2.36983481844393      -1.15429510711796       1.04855253120857
H        -3.59050109901699      -1.40867978747295      -1.67682667347136
C        -1.33848111856753       0.17230623999331      -1.44399388611321
H        -1.62662426373863       0.68711563635089      -2.36704757547368
P         2.62153920197939      -1.55048972707360      -3.19833762585605
F         3.91802612798267      -2.40283268716149      -2.69825227080262
F         2.39798009033594      -2.51394114248738      -4.48198304357035
F         1.62933737978381      -2.52791366880602      -2.26947401234301
F         1.27065545579820      -0.65667019766868      -3.60069979437248
F         2.79423499941268      -0.54531699098575      -1.83261550444450
F         3.55929364610630      -0.52464454092438      -4.04448479001839
