35
C9H17F6N2P optimized with DFTB in AMS.
N         0.98757297226778      -1.52221620854308      -1.37738412059319
N        -1.15317880253000      -1.36707365717163      -1.24958580134822
C         2.37628474563524      -1.73962004307855      -0.98497609156051
C         3.07412640199676      -0.41006548336986      -0.69150489267232
C         2.47574801254013       0.30038887717667       0.52644893604208
C        -0.04107200249344      -1.51485407341203      -0.53601656878516
C         0.52474074379099      -1.36712524061012      -2.65658084468648
C        -0.82842903761613      -1.26872611354213      -2.57586244387430
C        -2.49758451660293      -1.37265184922071      -0.68189694848820
C         3.23974345358581       1.58240652629849       0.85058120873926
C        -2.84039950696979       0.00781295546303      -0.13449546612566
H         2.36897962765104      -2.37946809103090      -0.09884799776893
H         2.87437598236944      -2.26103228022855      -1.80541876965442
H         3.01170954428728       0.23786181331244      -1.57176381613838
H         4.12990492889944      -0.62775776319898      -0.50640017876968
H         1.42658149111613       0.54472438577396       0.32721367081315
H         2.50547337454284      -0.37284544576201       1.38885327470972
H         0.01377850711733      -1.64761718409672       0.52977680286909
H         1.18398909890226      -1.35207899774632      -3.50661471852893
H        -3.19401789605838      -1.66545288952879      -1.47089216633894
H        -2.51285709454579      -2.12127778077341       0.11487010359864
H        -1.57482378734535      -1.15065004751162      -3.34169068336667
H         3.20432836124113       2.27335042209543       0.00712729975237
H         4.28351102664947       1.35903817824439       1.07363952917792
H         2.79549581890148       2.06931182667941       1.71842572885629
H        -2.13641205398838       0.28872080004571       0.64805184368829
H        -3.84428541958166      -0.01410720413702       0.28641578358528
H        -2.80385380170781       0.75517450582984      -0.92699231747590
P        -0.05752041284649      -4.32467623462722       1.33069830696540
F        -1.20088062658560      -3.09909902362484       1.51229456547832
F        -0.06677290049865      -4.00118193230752      -0.31645875627914
F         1.13965213816451      -3.14632881402045       1.48927816964524
F         1.09110568304514      -5.45420769582142       1.10130206939252
F        -0.04559397261743      -4.55004370122606       2.93845238424211
F        -1.25429379841632      -5.40742139252946       1.12492164349936
