39
C11H21BF4N2 optimized with ForceField in AMS.
N        -1.12168889386691      -1.73430630024076       0.22381326246296
N         1.10010808949131      -1.71591497505245       0.30501307501923
C        -2.51549150189786      -1.45972220925194       0.56608133024875
C         2.46002519673702      -1.41166339403883       0.74627465281777
C        -3.01371067968425      -0.18716817317670      -0.13289291252396
C         3.04547215120677      -0.23217119823814      -0.04331683676714
C        -0.03897720027677      -1.45560623016436       0.97530229170865
C        -0.65297782295014      -2.19412048719240      -0.95396242145194
C         0.72583800269657      -2.18566473073325      -0.90253977583107
C        -2.24324824882426       1.05843518680631       0.32975816415968
C         2.20450845768590       1.04162425034079       0.12587196970561
C        -2.81408429158201       2.33097431578145      -0.28719915384316
C         2.84159762816022       2.23223231999694      -0.58163848230394
H        -3.14458041095213      -2.32267107302203       0.25869363420032
H        -2.62157715155056      -1.34559329105382       1.66738067000430
H         2.46234617020788      -1.16531479451574       1.83121330385767
H         3.10005135342151      -2.30871484089934       0.60451362089001
H        -4.09388959191617      -0.06020641863649       0.09938960824630
H        -2.91082420760632      -0.30516413893326      -1.23396296229795
H         3.10435349750390      -0.50154565465524      -1.12057250856742
H         4.07978090029745      -0.04495902377693       0.31984024109880
H        -0.07919588512246      -1.00826690047803       1.96132373979928
H        -1.26547413285233      -2.48170903526194      -1.79841558741320
H         1.40290806461755      -2.46388746068817      -1.69943893579869
H        -2.29005539056276       1.14214955330040       1.43777715598555
H        -1.17838518278222       0.97294547112082       0.02833821504776
H         1.19456382512287       0.88174973068429      -0.30731699966990
H         2.09252306381534       1.28016447083909       1.20640418525410
H        -3.86810499985494       2.47603159905542       0.03236141440964
H        -2.76731816836910       2.27760602753424      -1.39618121773149
H        -2.21714493895122       3.20463727134743       0.05097020405940
H         2.94370664440609       2.02688650205622      -1.66909321161603
H         3.84167557583952       2.45036970929602      -0.15014699194539
H         2.19438300209980       3.12450730252632      -0.44827324704195
B         2.48266977518594       6.61214495586163      -0.89655063628153
F         3.54546371650913       6.78089677150204       0.03045408222937
F         1.25750057994287       6.47204187840300      -0.19165895509445
F         2.71594299132434       5.44979902401185      -1.67798782329925
F         2.41218322553041       7.74660880464556      -1.74812692092671
