38
C10H22BF4N optimized with ADF in AMS.
N        -1.09774726539927       0.34469401131937       0.38034709760599
C        -2.25302716569877       1.27383853868290       0.02099760567684
C        -1.46919716492877      -1.08199947998606      -0.00511206577700
C         0.09991236036118       0.81205266169292      -0.44097428518342
C        -3.57626671031997       0.84621506464066       0.63210220982355
C        -2.79216643853758      -1.52880166473229       0.59775001763754
C        -3.93092697105333      -0.58246024568573       0.22373539586126
C        -0.77994026471614       0.43460043161891       1.83345676728332
C         1.36823818144949      -0.01003224928442      -0.29413715447688
C         2.34210070694389       0.36106643919340      -1.41872525785704
C         3.65399213542062      -0.41055357339057      -1.31717750580536
H        -2.30855170262748       1.25858822589319      -1.07879047578924
H        -1.94734040580009       2.27962743979430       0.34821434203120
H        -0.64418556988876      -1.72232085044288       0.33247708296766
H        -1.51153094625845      -1.09109139540865      -1.10504863704802
H         0.26956328524359       1.85839320815509      -0.13879862145745
H        -0.24042744174775       0.80558258812318      -1.48531770708574
H        -4.33559139568083       1.55327286385808       0.25870088183808
H        -3.56647152955115       0.95232018222667       1.73195620728661
H        -2.71399971688642      -1.63493327470990       1.69502429532588
H        -2.98638232768398      -2.53920289671566       0.20174154783258
H        -4.86743197712802      -0.89938198797340       0.70888391436923
H        -4.07712208555888      -0.61586280782534      -0.86813988686969
H        -1.65978603144265       0.16327407361669       2.42443687697912
H         0.04350187465850      -0.25305941885799       2.05933305553113
H        -0.48124297808016       1.46630995153267       2.06171526895438
H         1.14838184204395      -1.08478906610923      -0.38892774769209
H         1.85039558343311       0.15397394258089       0.68577122419895
H         2.54223774546908       1.44725777086429      -1.39396498387680
H         1.84812732853175       0.14780313253701      -2.38159480136583
H         3.47468934929608      -1.49660551939254      -1.36663541126426
H         4.17545916248398      -0.19537642664340      -0.37020918241640
H         4.32979401645614      -0.14551578404953      -2.14370129564576
B        -1.70605027356213       0.09732752309219      -3.51735058247703
F        -2.86170231475027      -0.35609482774142      -2.79176322566562
F        -1.89816993790912       0.00472476017763      -4.89012168104048
F        -0.58660480667495      -0.70255177522495      -3.08922211354068
F        -1.44869832020646       1.45343951037393      -3.11104006586853
