36
C8H14F6N2O4S2 optimized with ForceField in AMS.
N         0.55228399091457      -0.00726752783440       0.00236040232662
C        -0.34128335681502       1.06203149673527      -0.52145394623497
C        -0.33718043871365      -1.07798297374225       0.52982707137665
C        -1.75687491499858       0.73738545264181      -0.08082498393072
C        -1.75351281105939      -0.76042932861031       0.08678025311272
C         1.41455040442354       0.52561178505048       1.08372533735597
C         1.41008444994007      -0.53909208014720      -1.08296018039981
H        -0.33394793982560       1.10347796304517      -1.63597508656297
H        -0.05796554927905       2.08035750840982      -0.16827772380678
H        -0.33060482300456      -1.11452711610426       1.64449355905937
H        -0.04938818989311      -2.09657477710446       0.18102784648109
H        -2.50951954372727       1.06436646909551      -0.83076513435846
H        -1.96674317722609       1.22415415431436       0.89740301429615
H        -2.50580793783321      -1.09097418301840       0.83548182930820
H        -1.95930944867419      -1.24819584211777      -0.89182348639749
H         2.08665865563561       1.32510909732710       0.69920316656135
H         0.80013095612335       0.96471485327271       1.90182925646576
H         2.04534068504485      -0.28043132049716       1.52131930832143
H         0.79260923904864      -0.98117106677748      -1.89707356380807
H         2.03498890502111       0.26863795965190      -1.52563300596225
H         2.08721955741435      -1.33565462569754      -0.70089782987662
N         6.23273308822843      -2.41078792473358       0.10580516003175
S         6.48744461569765      -1.01207623949244       0.92258188026072
S         7.24603893056485      -2.94971939705710      -1.06540046901894
C         5.67557101268876       0.32186314050310       0.06743662980183
C         8.36242598455930      -4.14783546754564      -0.36553952825287
O         5.90337587199626      -1.13103373622715       2.30179269933161
O         7.95851853129501      -0.71839398793283       1.02185229062365
O         8.03693238988958      -1.81244712973882      -1.64984068764797
O         6.44249779650152      -3.61201976866582      -2.14846372327544
F         5.82050330050110       1.49267143962272       0.78657156231271
F         4.33447528590581       0.03040565955724      -0.06371217712718
F         6.23085444062577       0.48245328895801      -1.18689908453409
F         9.23538312491664      -4.59243155299862      -1.34004322006513
F         7.64222578626953      -5.21940897260503       0.12667473786251
F         9.08104016164340      -3.56888957933692       0.66250174326966
