51
C13H24F6N2O4S2 optimized with ADF in AMS.
N         2.93101940286601       0.04570623400256       0.39664271072247
C         3.01271576110437      -1.48091663194293       0.44201883705333
C         4.11420871340131       0.43369702160530      -0.47652804040187
C         1.64717053724477       0.49181090354711      -0.27485772700624
C         3.79206356803130      -1.91430964824877      -0.81247135568030
C         4.15637831019331      -0.61858805426177      -1.56395633977070
C         3.06347218925797       0.65001235581246       1.76144465250777
C         0.39114575833371       0.29157027288435       0.55580988736491
C        -0.86644344713208       0.60575768332192      -0.25685484319272
C        -2.13701994702913       0.44750997713589       0.57640435805797
C        -3.41317816036994       0.76377945585687      -0.19989458685935
C        -4.67093148462354       0.59188919082737       0.64797476582972
H         1.99090091597050      -1.87333164482825       0.50211687543889
H         3.57339053783413      -1.73813930642715       1.34985425545058
H         4.99896735646638       0.35236692675318       0.16390123544249
H         3.99562913019239       1.47392922645125      -0.80398121912714
H         1.58285769488451      -0.06884316946398      -1.21888802728341
H         1.78326559628910       1.55796822200657      -0.51623138836115
H         3.21712748200894      -2.60971603003872      -1.44003318560864
H         4.71211747272185      -2.42022149732850      -0.48482177076381
H         5.16582555962745      -0.66768566493280      -1.99744699175164
H         3.44837635095906      -0.39500745933452      -2.37741133784218
H         2.29690849174794       0.22233348584456       2.41675811537473
H         4.06956396744548       0.42870009074781       2.14787920051263
H         2.93339926694122       1.73682799327888       1.67490138627332
H         0.32776087239441      -0.74730894424359       0.92220765878195
H         0.41393422802552       0.94519205773635       1.44251726610569
H        -0.91728226253718      -0.06120460616405      -1.13711392112757
H        -0.80856876469714       1.63894412960674      -0.64654142835453
H        -2.07627987035392       1.10774823268871       1.46181756961609
H        -2.19277308033918      -0.58726500010742       0.96414508181083
H        -3.35799745530987       1.80033252273672      -0.57958757038099
H        -3.47042596390995       0.10891960490382      -1.08842597155519
H        -4.64403082937937       1.25118327252076       1.53032910778842
H        -5.57826525375599       0.83336846857836       0.07424062259317
H        -4.76560251197270      -0.44510333697943       1.00778416510740
N         6.27234535682114       0.31887527308649       2.32884355956607
S         7.25680733289638       1.61100570508390       2.30860046499578
S         6.67446562224568      -1.13328767101873       1.75077403437161
C         6.76730278367766       2.54669964191859       0.74000892162046
C         8.07736054020694      -1.85172851022434       2.83391241987162
O         6.79956142717350       2.51652890448631       3.35029889756119
O         8.66608393150394       1.30070399761529       2.12407566872876
O         7.19281272241857      -1.15506817193447       0.38257950254134
O         5.53617485053167      -2.00300727784157       2.07372714667624
F         7.50947387567629       3.66803321191396       0.63158041784738
F         5.44960135693558       2.91888174657781       0.79212384746504
F         6.94142895744826       1.80725217817989      -0.38450411532706
F         7.93484222822360      -3.20073893340180       2.85090916405931
F         7.99049873188571      -1.39229563015129       4.10054456751758
F         9.28732604182346      -1.55649280523568       2.33251538073974
