46
C14H26F3NO2 optimized with ForceField in AMS.
N        -0.71363767169956       0.31653877224766      -0.15718503960490
C        -1.28123899908603      -0.44624861433244      -1.31704441417548
C        -1.84097821680176       0.72273058735882       0.74532392896719
C         0.27994213614402      -0.50216360954126       0.62325068758100
C        -0.08371865027443       1.55776087385631      -0.72882472864469
C        -2.13524640513366      -1.66132911505081      -0.91610822505349
C        -2.73407773597408      -0.45032256601645       1.20019638965973
C        -3.27198601568405      -1.23732434809917       0.00902914171978
C         1.55904965335690      -0.92343068342732      -0.14085602550754
C         0.65516459018297       2.46893381477965       0.28294205698799
C         2.48591230483408      -1.73708023607792       0.77382258842667
C         1.22287554882308       3.70560431161091      -0.41248527461418
C         3.76011978624370      -2.15654319159399       0.04540347709813
H        -0.48557487558831      -0.78273387228605      -2.01361074251725
H        -1.93739879936825       0.21918598771355      -1.92616656568552
H        -2.49906518416905       1.46599592922572       0.23895663905501
H        -1.45790575113295       1.21232467635438       1.66629967275394
H        -0.18565293538651      -1.43198213902186       1.00323471712296
H         0.58653904246043       0.04452010409921       1.54205676063920
H        -0.86203678553987       2.18076332894842      -1.22857612635374
H         0.62968357007751       1.29140932585584      -1.54056159423891
H        -1.51640522017687      -2.44890825371080      -0.43900588688324
H        -2.57231652148540      -2.11059629141761      -1.83434311137694
H        -3.59228466269997      -0.04564986335214       1.77527041090990
H        -2.18615724042720      -1.12590778547966       1.88914697044877
H        -3.99735510891731      -0.60913459969416      -0.55394981937205
H        -3.81030419813343      -2.13929090182293       0.37261218336416
H         2.11779719907346      -0.03355905624055      -0.49569999830674
H         1.29865176929639      -1.55631134255917      -1.01316162760163
H        -0.03317843565050       2.81519639782562       1.07990063444173
H         1.50524803232080       1.93425259538146       0.75276875312496
H         1.95772084574877      -2.65055976215821       1.12517697577028
H         2.76427793614642      -1.13038183323083       1.66325802953589
H         1.75686380015293       4.33786999944628       0.32825860323457
H         1.94202539655843       3.40871478546395      -1.20569215536500
H         0.40583379124478       4.30668498093352      -0.86566164536960
H         4.32481494140005      -1.26143007872769      -0.29187429864852
H         3.51214360781130      -2.78768510715518      -0.83442360410809
H         4.40524881544845      -2.74433485573951       0.73232126813490
C        -5.58521016666072       2.84401661041996       1.16148588979923
O        -5.51185103166599       2.46961011590534       0.00165963450256
O        -5.33996945950843       4.00790649528406       1.43579815323558
C        -5.97034334409856       1.88521889353006       2.24842481920895
F        -4.92463887991413       1.76173854914003       3.14450026689085
F        -6.26307426238183       0.64010720940124       1.71823015883850
F        -7.08380784096565       2.36301938485371       2.91463262217510
