64
C18H26F18NP optimized with ADF in AMS.
N         2.18002598916143      -0.79398397293910      -0.65642157188497
C         3.06860034054532      -0.64224691491211      -1.88191965321414
C         2.87600397027594      -1.90803505377372       0.11331943121028
C         2.15466506296237       0.47234581467004       0.16800200710408
C         0.79554752683902      -1.22994455920025      -1.09024911547352
C         3.47914380793227      -2.06307806045380      -2.25904509630646
C         3.38413146944286      -2.88328453144470      -0.94704747921283
C         1.56451190092558       1.67541994101810      -0.54468399563343
C        -0.23702053166795      -1.30007842610253       0.02263479705102
C         1.53600590422420       2.88540540247131       0.39421942000473
C        -1.54154508009323      -1.92686368837352      -0.47902476575629
C         1.01650372045030       4.13928342460049      -0.30314202846313
C        -2.60380162660119      -1.98354313339267       0.61659271663900
H         3.93820991997291      -0.05947965311318      -1.55630440026779
H         2.51875757447453      -0.09731743473807      -2.65943356652971
H         2.17774575315822      -2.33194444838651       0.84498769951879
H         3.71384786470244      -1.43746974320372       0.63885923662071
H         1.60111297155477       0.23764687999595       1.08958669584525
H         3.19982089554667       0.66171188775146       0.44822665447318
H         0.47291188462724      -0.52518713429937      -1.87094640730399
H         0.92332940222778      -2.21540084459722      -1.56217305619741
H         2.82094678351480      -2.47879940639344      -3.03669415351869
H         4.50346782664644      -2.04909601104810      -2.65556212582851
H         4.36752494990433      -3.25992549791795      -0.63533080954626
H         2.71128476631736      -3.74560082387055      -1.06560373306668
H         2.17350737012563       1.92381108136307      -1.43059913524439
H         0.53811678123086       1.47042656591905      -0.89583559755472
H         0.13999649485922      -1.89587537577613       0.87089961168582
H        -0.45318387712218      -0.29019891522840       0.40870087914475
H         2.55223138178289       3.06770637104331       0.78080966888372
H         0.90099381233389       2.65191485819168       1.26766221207447
H        -1.92289528716482      -1.34595361341452      -1.33764254285557
H        -1.33826814740735      -2.94525841575577      -0.85438496287216
H        -0.00176661238398       3.98606081883082      -0.69487120589632
H         1.66706707648200       4.41691199323767      -1.14729823842587
H         0.98678258605872       4.99201881210917       0.39121098017096
H        -2.84300869076933      -0.97501096266939       0.98788421046697
H        -2.25669362584169      -2.58412878268609       1.47197884404338
H        -3.53476972609754      -2.43547918180027       0.24345284282664
P         7.13670481010922      -0.57071203350071       0.45587930014187
F         7.64559716656988      -2.05422304264790      -0.11501414906122
F         8.54584825314989      -0.25497170006322       1.24803131705156
F         5.63688871970609      -0.78045374734683      -0.33193904583072
C         7.95467540924979       0.10575620004608      -1.20242485669633
C         6.52051797834212      -1.74848979580169       2.00765013006177
C         6.35327222887204       1.16559767384327       1.18051988806686
C         7.31019915866809      -0.24384092453984      -2.58111871044438
C         5.78914134626200      -1.38259764381423       3.34150378589258
C         5.97535219631039       2.46591913882824       0.39200977314393
F         9.23536858302788      -0.38641952029142      -1.27919866132150
F         8.07019109525056       1.48044736705492      -1.20630271491500
F         7.66372803406872      -2.37546668469989       2.43776956967314
F         5.69546951848764      -2.73610807396585       1.46861363936549
F         7.10336980702655       1.62639619994612       2.22970071198712
F         5.11294494772107       0.78346675010748       1.70520869115214
F         8.14318383389969       0.15161368557066      -3.58023561325240
F         6.12674803040055       0.40893709142466      -2.77073618509072
F         7.08154750374394      -1.56859588403411      -2.73694607328161
F         5.88300600601273      -2.43471798689793       4.20257847335777
F         6.32765446726467      -0.30712875148908       3.94830769029695
F         4.45250905077460      -1.16743660085994       3.15546328387540
F         7.02368092852271       3.26872417126174       0.14958852416847
F         5.09284901478876       3.19727195175433       1.14574096246120
F         5.34033307803964       2.18012232420411      -0.77974225161328
