53
C17H32N2O2 optimized with ForceField in AMS.
N         3.07612399879414       0.91143561122803      -0.00004851390882
N         2.91764880770866      -1.30091266422190       0.18051872990503
C         1.47479831847261       2.77502504357109      -0.25876937950913
C         2.84033310100877       2.32602097693902       0.28482442341344
C         1.00250688485444      -2.62641608990036       1.01677120747128
C         2.50427637467262      -2.60938577434426       0.68785994280032
C         0.31276213715904       2.09236773948761       0.47919796301990
C         0.13780690810116      -2.30029523163050      -0.21127879434120
C        -1.04580843078859       2.54597373453262      -0.06619558983777
C        -1.35343588190799      -2.28419689122677       0.14489192644842
C         2.82771327497986      -0.12220339634065       0.82781171247594
C         3.34556158718742       0.36826682212167      -1.20447546918625
C         3.25432017817881      -1.00371569822713      -1.09091089205306
C        -2.18889072824880       1.86156799436333       0.69430244452425
C        -2.19172894928015      -1.78559261619876      -1.03939308500154
C        -3.54381736293574       2.17468350466071       0.06775036532996
C        -3.67263805520093      -1.71202250394859      -0.67966528664491
H         1.38978914157196       3.87624753430948      -0.13231943586947
H         1.41683958722977       2.54942580333015      -1.34622284367832
H         0.79686170374647      -1.89206288287623       1.82582273891499
H         0.73326256833889      -3.63510705765986       1.39849447347845
H         3.64344721163957       2.93316033147841      -0.18595570469504
H         2.88471427936407       2.50598358238960       1.38120497847947
H         3.08438572630198      -2.84394913490958       1.60593675625260
H         2.72614166675400      -3.39874026712726      -0.06363098757641
H         0.37507246208161       2.33011870684784       1.56381121796124
H         0.38875654428036       0.99175056223393       0.35500726697720
H         0.32047935082702      -3.05731905938300      -1.00514100715715
H         0.42023105220661      -1.30197507111865      -0.60853708442481
H        -1.14229997638576       3.64886171848755       0.04087505356751
H        -1.10941232952771       2.28628747219294      -1.14616881420009
H        -1.51799781870789      -1.61501791399916       1.01770539615295
H        -1.67659027002909      -3.31119485923095       0.42399927846797
H         2.49405031323016      -0.01379264269595       1.85230028912602
H         3.52615410239988       0.92934848433102      -2.11211403346043
H         3.34541733883811      -1.72380241824828      -1.89379365331424
H        -2.04104639344319       0.76184971444193       0.68543822554404
H        -2.19037125646853       2.20272053260842       1.75236694617887
H        -2.06306411147887      -2.47191545968288      -1.90436902131348
H        -1.84900095337603      -0.77208596010428      -1.34307578267455
H        -3.73798805368557       3.26780198882867       0.09330541948058
H        -3.57408038996370       1.81780490426213      -0.98391067600252
H        -4.34349369191743       1.65666861162790       0.63842314946616
H        -4.24509839694439      -1.31861517387199      -1.54613789142686
H        -3.82870938770906      -1.03194379508008       0.18441151563049
H        -4.05807492074740      -2.72208447587694      -0.42562088273957
C         2.67554387099548       4.33772437883515       5.38980049997036
C         3.27392550298925       4.71531434522326       4.07108744702454
O         4.10534047222409       3.99032115230514       3.54963815995900
O         2.93419261454136       5.74644010707501       3.51351630786165
H         2.11954567555250       3.38232252715686       5.28672090818948
H         3.48076888361796       4.21099466083741       6.14372482980041
H         1.97571153079820       5.12493053649713       5.74374759304312
