46
C12H26F6NP optimized with ADF in AMS.
N        -1.90243988690568      -0.34721720293084       0.00409718648977
C        -2.17021031199957       1.10362967533117       0.38125165593653
C        -2.87443442727237      -1.24472189654571       0.76453411058184
C        -0.49935775038260      -0.73140789554266       0.43736698996955
C        -3.61876052586889       1.51103139281232       0.18887940539864
C        -4.32957396339610      -0.84463985941670       0.59126085140867
C        -4.55547990401873       0.61180774427282       0.99132848015617
C        -2.05995863160013      -0.56348641216921      -1.47385200788965
C         0.63256898865110      -0.00842773327096      -0.27357863210715
C         1.98871898129360      -0.46925146003549       0.26973725123081
C         3.15843820997462       0.22370352960166      -0.42834983148801
C         4.51982170846587      -0.21716898331574       0.10724083455825
C         5.68356958886564       0.47992036744044      -0.59372682099150
H        -1.49103631340450       1.71594603985111      -0.22641813724312
H        -1.87325195571454       1.18591673060187       1.44076266196477
H        -2.57114953753791      -1.17161437013663       1.82236341919639
H        -2.68133508368432      -2.26968755835472       0.41264986571840
H        -0.45281976117612      -0.54791222031581       1.52241031895705
H        -0.42270244835718      -1.81845947985555       0.27402519554264
H        -3.70020388384544       2.56274929436703       0.51331387137212
H        -3.89611087932797       1.48931023151580      -0.87748937832909
H        -4.66780992709144      -1.00188368574651      -0.44544337401930
H        -4.92333302189138      -1.52912891180206       1.22175984551510
H        -4.37119980307870       0.74229586726612       2.07528934827542
H        -5.60010993763176       0.89239427936667       0.79127537367660
H        -1.50560119411639       0.21192989624556      -2.01202018150558
H        -1.66144903630968      -1.55793419454265      -1.71331434415322
H        -3.11303531932372      -0.51011108742251      -1.76644718342263
H         0.59595567289247      -0.20716485666004      -1.35644583577002
H         0.54711828484544       1.08126532355524      -0.13444681027446
H         2.04113474214069      -0.27054408800879       1.35626847893505
H         2.08465773010147      -1.56349762734142       0.14457006407666
H         3.05696299023652       1.31908453706975      -0.31242899740949
H         3.10809954846819       0.01959770600635      -1.51430559519941
H         4.61584062937361      -1.31210299778953      -0.00869569890734
H         4.56310192781587      -0.01470341473541       1.19317319626356
H         5.67827668347136       0.26672000464780      -1.67466631696595
H         5.62242479050458       1.57273967184145      -0.46818970617901
H         6.65344998494016       0.14973423538911      -0.19140922920922
P        -5.55292005021085       0.29189050626584      -3.35701478191323
F        -6.20906374560445       1.67094817630008      -3.94162247674109
F        -6.01385537672565       0.71210204032407      -1.80653279847494
F        -6.95196764633428      -0.53231016194160      -3.55824140897766
F        -4.83692820422313      -1.10071896150187      -2.70800797776699
F        -5.02277027529382      -0.15056786025510      -4.84416605202460
F        -4.09472941401391       1.09563868726527      -3.09114350776132
