31
C9H20ClN optimized with ADF in AMS.
N         0.19472326664931      -0.19946192964829       0.02514494077440
C        -0.56352633387873       0.46471046103164      -1.11826366199336
C        -0.70303256114202      -1.26211994205649       0.65186245049998
C        -1.90410432554678       1.03366987743955      -0.69124393496343
C        -2.05787133079164      -0.72133431933486       1.07954304707109
C         0.61470020729499       0.79061544617760       1.08227800315634
C         1.39012807640285      -0.89602820857676      -0.61571952718484
C        -2.78124186185827      -0.06899586622044      -0.09729700222229
C         1.58437322909555       1.85733296060393       0.61286954462021
C         2.30239124973680      -1.61388516799604       0.35598322607145
H        -0.71456003442680      -0.36177406220942      -1.85063594650603
H         0.10716298304487       1.22439373728484      -1.54261847528492
H        -0.14680786763518      -1.67695560468851       1.50328054712078
H        -0.82973617660144      -2.02082262931261      -0.15386877099968
H        -2.37204385508225       1.45564569246904      -1.59710340315030
H        -1.79270599552832       1.87304796794322       0.02064903386788
H        -1.97206273098797      -0.01456318919436       1.92552177631541
H        -2.63239387252824      -1.58485552737896       1.45561012862502
H        -0.30565568796476       1.24884124387305       1.46399553316035
H         1.04840976732884       0.19630851119786       1.89943661612673
H         0.92585195199877      -1.59995608976498      -1.34287346060109
H         1.92817966685857      -0.11757720957271      -1.17597822860615
H        -3.75580816130042       0.33471202356716       0.22138997187698
H        -2.95563438707160      -0.83566966586667      -0.87365245394822
H         1.79946364384436       2.52625771888409       1.45968392279762
H         2.53956714641345       1.43431318451376       0.27289625772704
H         1.16569719768691       2.47447983651007      -0.19383323669308
H         3.09662900199973      -2.09812366892455      -0.23205474163930
H         2.79148088459253      -0.94898278668443       1.08383926248855
H         1.77900548095484      -2.41525883807906       0.89510240976967
Cl       -0.90891866065793      -2.59484269358670      -2.37340953507682
