44
C12H11F18N2P optimized with DFTB in AMS.
N         2.00330666759561       1.96195846664070      -0.71272763857754
N         2.97251444513888       0.22585256843741       0.11566069492344
C         1.72728098266909       3.09636503775584      -1.59601860570593
C         2.82146199071959       0.95100703502324      -0.99089072556105
C         1.62996921521542       1.88544953539097       0.60249433734551
C         2.24353533962566       0.79193168195817       1.12569217586702
C         1.40236311343334       2.63813780437201      -3.00985511074943
C         3.94987876157572      -0.84259950757597       0.25645758193102
H         0.89163259590626       3.64999165323457      -1.16132349999193
H         2.61829562715632       3.73357942223187      -1.59263894577664
H         3.30760339562583       0.76409932380969      -1.93172590372545
H         0.98102908290979       2.61436299227270       1.05466511555630
H         2.23282262968606       0.38313085559277       2.12079317225323
H         2.27537812902542       2.18911081505954      -3.48067043147772
H         1.10236369729591       3.50508333201195      -3.59693558664244
H         0.58701204455635       1.91506607922474      -3.00439139069130
H         3.74548091992107      -1.62430546865016      -0.47468137136727
H         4.94321403806269      -0.42220001639517       0.08244918175433
H         3.88774119001349      -1.24655526404219       1.26449060254023
P         6.05646176019505       3.16561345193611      -1.02635713850547
F         4.77883086262114       4.15931648759759      -1.54208855476727
F         4.86779860756967       2.03186488220408      -0.51126908155374
F         7.23729670915820       4.24194451567321      -1.50966992279823
C         5.94057861048442       2.46745119435429      -2.86767208338212
C         5.91154747878878       4.16751607068935       0.65916943803822
C         7.35337617964615       1.80458759541079      -0.34848346197673
C         6.22200620269779       3.44735630760008      -4.04411215649218
C         4.76584040070066       3.78285164380767       1.63281067870050
C         8.86780065547226       1.96652510952106      -0.62818517943305
F         4.66766508239410       2.02197423619119      -3.06315878163651
F         6.74471740325155       1.41642128422118      -3.08888729632870
F         5.69756945182754       5.45767812289497       0.35031324778546
F         7.06212320229216       4.12748827530738       1.35087348713407
F         6.98813127252439       0.58723035207438      -0.81810181644132
F         7.20168994598448       1.72267597305940       0.98955692370358
F         5.88123424164418       2.85227912215553      -5.19405659760581
F         7.51112795000044       3.75222701041853      -4.11146012025107
F         5.52156889399511       4.57172226407134      -3.95617701436452
F         4.76227775221736       4.57214272422476       2.70389072395048
F         3.57544222013873       3.92240248725280       1.02830681965181
F         4.84450265845490       2.52213542086284       2.06181308625416
F         9.54257863066675       0.88723437644354      -0.22657149397017
F         9.35401440556215       3.02073340704310       0.01557275058578
F         9.08906180757947       2.12865603413211      -1.93065933490153
