25
C5H12F3NO3S optimized with ADF in AMS.
N         0.32890485636309      -0.22481055525031      -0.05507771500001
C        -0.23056330249752      -1.60794184257736      -0.24354794502938
C         0.85630154412091      -0.10055154901069       1.34884313819707
C        -0.73679546332574       0.79598541549666      -0.28370024709082
C         1.45009571827984      -0.01533201492277      -1.03588650392728
H         0.58005046389672      -2.32630896790891      -0.06109227784303
H        -1.04775633648655      -1.75093590140590       0.47458567250473
H        -0.60111001163748      -1.69419691996868      -1.27269083084501
H         1.35504337497275       0.87155745834972       1.44511781547356
H         0.00451769883819      -0.16529057545613       2.03855694325002
H         1.55406087945548      -0.93730948462467       1.52821553206562
H        -0.30299904709489       1.79400646505825      -0.14194100856016
H        -1.11611000087413       0.69182363145783      -1.30790723576402
H        -1.54710685944234       0.63268155792964       0.43766917963036
H         1.92247280542390       0.95031663053102      -0.81881991423489
H         2.16121907645431      -0.85238232316132      -0.92475719158598
H         1.02143822959709      -0.01439758539752      -2.04671847365015
S         3.29323531755445      -3.09205278171556       0.59532282792716
O         3.92107094437222      -4.40316458584526       0.70790935709781
O         2.29166481588320      -2.74834076337221       1.63680825260300
O         2.87252743747865      -2.67623781677593      -0.76703046620034
C         4.68030284529819      -1.88504523699664       0.96809104287418
F         5.68117813242935      -1.97410522866616       0.05750608504571
F         5.20638558072620      -2.09071099939325       2.19981784001650
F         4.21352669041407      -0.58699366877386       0.93463990724531
