34
C10H21NO2 optimized with ForceField in AMS.
N         0.42424541968477       0.23354519309796       0.05079132646230
C        -0.53129562872997       1.27760087191343      -0.44048978278583
C        -0.08948298739060      -1.13371982825292      -0.27139141541728
C        -1.98864306803141       1.06953512097146       0.01329565958224
C        -1.52855524767261      -1.37959160276344       0.21391714070485
C         1.72105129295089       0.47101997104875      -0.66559752426799
C        -2.47668758239337      -0.32848269348690      -0.35010929007372
C         0.63629457424116       0.38774685147517       1.51592974619286
C         2.87923319129442      -0.46938407023817      -0.28274103831313
H        -0.54133225862906       1.29778319234593      -1.55548028554381
H        -0.20605617090139       2.29077726410354      -0.11021867197221
H         0.54738251556298      -1.91727056656141       0.19332443760673
H        -0.06586128313905      -1.30510933902940      -1.37227195449520
H        -2.63405833343430       1.81805601622118      -0.49551437306092
H        -2.09812171187244       1.24361053870320       1.10373681606057
H        -1.57264229113325      -1.37346238172659       1.32261492992197
H        -1.85966810016759      -2.38591985562452      -0.12226304807526
H         1.57628977663271       0.37903719399271      -1.76661446412745
H         2.07227106274630       1.51360337045306      -0.48630219610258
H        -3.49593780780485      -0.48614923886282       0.06400788217650
H        -2.53352193036214      -0.43052034801137      -1.45662746033050
H        -0.31422979378377       0.38887278027856       2.08305878572283
H         1.23599145707413      -0.45021706754362       1.93083399796413
H         1.15950279041325       1.34232171252970       1.74668322618689
H         3.76850911478925      -0.20620923141980      -0.89374120917451
H         3.16958230939996      -0.34941832864598       0.78032308334119
H         2.63776990711064      -1.52929617835658      -0.49716908993201
C        -2.51151523950622      -3.98507592644232       3.09806321351601
C        -1.29789949189729      -3.51008371020027       3.83295748285975
O        -0.58987584699219      -4.31128614333722       4.42080930631374
O        -1.01304965277234      -2.32319901261109       3.85049105886938
H        -2.21212539219492      -4.71169056626967       2.31372307297809
H        -3.20603072088705      -4.48075189846543       3.80867736998929
H        -3.03884196650468      -3.13414271988513       2.61624120842309
