70
C20H30F18NP optimized with DFTB in AMS.
N         0.27741060047464      -0.26960283776508      -0.61543835362243
C         0.60234975417150       1.16586213135986      -0.89272442805429
C         0.10751465798023      -0.85112534949039      -1.98804723045920
C         1.44337265072884      -0.94142433115760       0.06633967153797
C        -0.99548893079111      -0.37046345654698       0.17847647098504
C         1.48498565120817       1.15062072262531      -2.14062662655284
C         1.18000669641745      -0.18280031883851      -2.84137999402022
C         1.65270560350464      -0.55728575349903       1.52771591968476
C        -1.48099057217065      -1.80394142382566       0.37259914974778
C         2.99829540860444      -1.12926436441185       1.99446043779151
C        -2.67797554271841      -1.84721885295731       1.32715502367350
C         3.17554725420769      -0.95968868009536       3.50597211503523
C        -3.10908759100145      -3.30093094838621       1.55640620632719
C         4.49478759834102      -1.57157909238047       3.97375809975907
C        -4.25903610936748      -3.38811131330197       2.55604821284042
H         1.08623561280697       1.60860889027990      -0.02283579055199
H        -0.33682706941914       1.68898688164860      -1.08549546346948
H        -0.89428062885919      -0.58889679986181      -2.33548643066718
H         0.20969468003587      -1.93328895857658      -1.94690951898798
H         2.33103053033603      -0.69147278664450      -0.51797732087131
H         1.28234826110902      -2.01493719635041      -0.00166298399878
H        -1.74800272165045       0.21277059051907      -0.36005716044929
H        -0.81148322276296       0.11295434547672       1.14042856759342
H         2.54083516394395       1.21644912305473      -1.87157104433532
H         1.24443130006623       2.00397710015440      -2.77680000301138
H         0.81131819110411      -0.02948678621324      -3.85659188337566
H         2.07274365877074      -0.80926475728887      -2.89578311910258
H         0.85483601560412      -0.98091876025053       2.14262059720324
H         1.64859752910343       0.52895881889017       1.66038261546589
H        -0.68524953124543      -2.41478819253403       0.79280339916837
H        -1.76541536689976      -2.23527829824205      -0.59002282321887
H         3.81216999944697      -0.62392480539071       1.46361446151902
H         3.04394767158619      -2.19238387525039       1.74322280824679
H        -3.51031939148892      -1.26891630920897       0.91093864729162
H        -2.39632054562348      -1.39131101471499       2.28278236922042
H         2.34547259013125      -1.45176610460201       4.02271467140306
H         3.14895870950822       0.10529699138467       3.76226225690956
H        -2.25590832232396      -3.87533090913925       1.92988045627123
H        -3.41514015503925      -3.74183904601348       0.60252138540376
H         4.60382751030855      -1.44132488693921       5.05035294886667
H         4.51777414857806      -2.63776800874662       3.74791774091132
H         5.33859330729288      -1.09098580359578       3.47664568934252
H        -4.54175576338371      -4.43031313001839       2.70217029411935
H        -3.96181363822706      -2.97074988424586       3.51924179953932
H        -5.12925046801277      -2.83883721334917       2.19263381301565
P         0.74133091717356      -6.06050549784070       0.60401404208990
F         0.29310303739382      -7.13175482231409       1.79213071532045
F         2.35099387959238      -6.51016740535089       0.72161204475604
F        -0.84898051943263      -5.51598542356611       0.42621331218420
C         0.44294228156577      -7.51513679880734      -0.66111186660157
C         0.92866000047628      -4.78172022072229       2.10052863793993
C         1.32948980706830      -4.64364680311011      -0.75666885028911
C        -1.00190954892719      -7.75248489307762      -1.17015471471706
C         2.17417562181026      -4.90377631966341       3.01554182052108
C         1.77528490042514      -4.74375305748880      -2.23998994890426
F         0.86535526158502      -8.66300878984910      -0.11536444614959
F         1.20115284578838      -7.30157604939763      -1.75613912487895
F        -0.14369324883110      -4.93832891577162       2.89385036550958
F         0.90036993191199      -3.47322961633962       1.72250137582926
F         2.36852177115622      -4.00006621259824      -0.16396997132160
F         0.31920883566023      -3.72125686504843      -0.83138937872417
F        -1.04583162298184      -8.81333031243448      -1.97735508110229
F        -1.42809842155861      -6.69664493192022      -1.86753000495701
F        -1.84713296281585      -7.96489248114308      -0.16873773940589
F         2.33395254259464      -6.12718578753184       3.49224459360687
F         3.28451880424759      -4.54655800655091       2.36927500121113
F         2.04407888734385      -4.06870776896554       4.05814312516388
F         2.85746261947325      -5.47835860475629      -2.42318755305649
F         2.07321429610573      -3.48440906376625      -2.64910170478908
F         0.80312478118884      -5.17387716124551      -3.03438448746017
