28
C6H11F2N3O4S2 optimized with ForceField in AMS.
N        -0.59080030017170       0.19930154500608      -0.37081552090831
N         1.59422030827802      -0.09316400273812      -0.09474684949847
C        -1.99858670054227      -0.07502265488275      -0.64465649116464
C         0.43062884962794      -0.67588176207621      -0.44054064854788
C        -0.05449982550305       1.37129349292504       0.02662313515912
C         1.30265400014782       1.18867017057327       0.19896370355091
C        -2.78776424827773      -0.14036828251055       0.65795297496266
C         2.90397359577450      -0.72422386167743      -0.01663391073441
H        -2.41343658961573       0.72079613860219      -1.30028435428722
H        -2.10028971588131      -1.04653506125092      -1.17612486606370
H         0.32618355784632      -1.71717388935309      -0.71823440793250
H        -0.60763389548120       2.28797361470510       0.18365179662626
H         2.01976527654349       1.93172467851770       0.52197030455081
H        -2.37754179832878      -0.94123246550569       1.30943873171284
H        -3.85215360190764      -0.36666806338452       0.43919201487313
H        -2.72888591938434       0.83046759023290       1.19351503286897
H         2.84117603466443      -1.79302134617170      -0.31219485744158
H         3.60932653673990      -0.20357841427124      -0.69705327651461
H         3.28065175688274      -0.66314868041097       1.02474085108095
N         5.70931695570298      -0.69788364809557       2.48481466269010
S         5.27155892505120       0.49661782165318       3.51366989942545
S         6.49593397249143      -0.37480440331282       1.08636647490837
F         4.08363389606278       1.43833604331608       2.80242390280348
F         8.13058834481479      -0.20180046796248       1.40163166986043
O         4.74021105139378      -0.10320233774259       4.78469562630287
O         6.45955380331830       1.36477953076188       3.81989659297155
O         5.97835719257642       0.90023661216620       0.48125603013655
O         6.29750690307691      -1.51237941421298       0.12493259050889
