38
C12H19F3N2O2 optimized with ForceField in AMS.
N         1.91010387051171      -0.93553650959572      -0.22269036465432
N         3.14230219328235       0.91126288098805      -0.11582404269683
C        -0.37316455208784      -1.86428488293354      -0.05294841543443
C        -1.02749809255535      -0.49505693137057      -0.29203839510919
C         1.00175337992331      -1.96432185033060      -0.72647250010492
C        -2.45605437162111      -0.45764601220145       0.26073398552167
C        -3.09657488157132       0.91534129117877       0.02492949032737
C         2.37220929767102       0.13353399209423      -0.90039826058830
C         2.40763344509935      -0.83133590190869       1.02627238232028
C        -4.51130037915299       0.97071539620863       0.59350706238413
C         3.17271126181086       0.31497469921814       1.09185246771950
C         3.77900179014007       2.17037596904426      -0.47990436511519
H        -0.26490629753791      -2.04144086862440       1.03933391685559
H        -1.02375189112131      -2.66566507590892      -0.46621206164128
H        -1.04863236093300      -0.27657692928326      -1.38197304971655
H        -0.42507601047027       0.29293310857023       0.21082822076834
H         0.88101821408949      -1.86097793757488      -1.82746859515421
H         1.43900579893290      -2.96722425103862      -0.53089676402671
H        -3.06680497888574      -1.23947198339563      -0.24250570712819
H        -2.43294594789235      -0.67239319364003       1.35208902311206
H        -2.48331245133375       1.70457079212657       0.51235356728163
H        -3.13876090616765       1.12616409992990      -1.06613878181817
H         2.13190097027394       0.35319312063151      -1.93296212788531
H         2.21407250712041      -1.52465104915675       1.83417142359793
H         3.69745238758261       0.69160683855765       1.95983438201507
H        -4.49465507388692       0.78541833487059       1.68874314307785
H        -4.94575697738787       1.97622235452036       0.41087981650020
H        -5.15498635045889       0.21080350263043       0.10151775637496
H         4.87769669557913       2.08545956791545      -0.34613285526373
H         3.56336031363362       2.42360398081919      -1.54011889415903
H         3.39170082007899       2.98468754181841       0.16814162981921
C        -2.60701374780733      -0.68658103522787      -4.74586203441222
O        -3.70284498314316      -0.14864145861788      -4.73304883152921
O        -1.64021261992645      -0.07431171314253      -5.16996774471009
C        -2.44276721835852      -2.09127625311420      -4.24832967663424
F        -1.97402289197624      -2.89226110874536      -5.27289041612111
F        -3.65196843298986      -2.59279793813202      -3.79931308569850
F        -1.53451072356394      -2.10979481297946      -3.20800928687409
