35
C9H17F6N2P optimized with ADF in AMS.
N        -0.06131186030180      -0.95674273954158      -0.33121229063874
N        -1.90343991550517       0.19293597003567      -0.23176020768519
C         1.29364068258352      -1.45305982553208      -0.03779300091742
C         2.37682240269743      -0.45445911137878      -0.43986239547500
C         2.49760351950994       0.74221482901262       0.50207584720226
C        -0.77960771860263      -0.11920194100296       0.43001823953844
C        -0.73323965367853      -1.16108179317921      -1.51603415389585
C        -1.88754254843236      -0.43992917986257      -1.45363737066057
C        -2.89841797375963       1.19043167150084       0.19861875786178
C         3.58022906065111       1.71559099238397       0.03867936939688
C        -2.54042598624781       2.59124544757568      -0.27366500141383
H         1.33373020091844      -1.68566594111453       1.03889257230103
H         1.39282846757432      -2.40000117798409      -0.58820632810524
H         2.17869115483179      -0.10355082082861      -1.46653330397015
H         3.33218317707433      -1.00848060052909      -0.45815904394597
H         1.53940583178972       1.28614548592570       0.52306282728771
H         2.71180967572795       0.38373623449037       1.52746865100470
H        -0.49219643208750       0.25543762365266       1.40280893399532
H        -0.31011212453934      -1.74783508202391      -2.32040927688657
H        -3.86555041577850       0.85762426108853      -0.20883369889981
H        -2.96332614977496       1.12490084414577       1.29580803545448
H        -2.65881722175031      -0.27864399422720      -2.19442835141299
H         3.33019602563487       2.10386094534950      -0.95968300882234
H         4.56371867138378       1.22026885095239      -0.01233100845393
H         3.66605953260211       2.57122641936607       0.72515015534355
H        -1.57179232644688       2.91101878838104       0.13280875808549
H        -3.31959118513653       3.29138701527109       0.06095564423270
H        -2.45687305658089       2.63233403450173      -1.36791356687183
P         0.35057730332617       2.14070662540768      -3.05531619658113
F         1.93326422984210       2.54682529439362      -2.84234492233940
F         0.23308969474193       1.80948597627228      -1.40914414257680
F        -0.12059288944575       3.68770358672593      -2.75489689187784
F        -1.25214708732700       1.69212425284333      -3.22656135675702
F         0.45153906962787       2.42884153348547      -4.66072482490122
F         0.79711257787820       0.54706469284266      -3.29855494791551
