44
C12H24F3NO3S optimized with DFTB in AMS.
N         0.67545145300199       0.24660436878895       0.90691909691888
C         1.63839806361123      -0.74491366619292       0.34206589928784
C         1.43124269594720       1.54014875276852       0.87625821325547
C        -0.56331643211689       0.38727266606376       0.06940687795605
C         3.00505744782173      -0.32334611093569       0.88020508001582
C         2.86918933646528       1.17031356707148       1.22493956368223
C         0.34192395051703      -0.09917010085363       2.31633345711509
C        -1.50478743462978      -0.81036148627135       0.12092563073414
C        -2.74910498878777      -0.48434139543401      -0.71540984705044
C        -3.81127864428388      -1.57733613130627      -0.57100239207077
C        -5.10536004104194      -1.22646822789678      -1.31540305762815
C        -5.87202310667997      -0.07956479279022      -0.65603382905409
H         1.60262965652738      -0.66251586407990      -0.74666804743175
H         1.34565335257439      -1.75247208464889       0.63758441006564
H         0.96316305044811       2.23900642230074       1.57096439626560
H         1.36254274042464       1.93841546461754      -0.13816284952897
H        -0.23096965095809       0.56546755915719      -0.95693928982240
H        -1.08063475769831       1.28000399878890       0.42681916289818
H         3.77463846891165      -0.49369428988655       0.12561511494718
H         3.26665719031592      -0.90285834151387       1.76787977355843
H         3.07153567939071       1.34132197930352       2.28397237598197
H         3.56528048298217       1.77896122155539       0.64575022418818
H        -0.05783759526008      -1.10916954803449       2.35664830565374
H         1.24445276989876      -0.03943368674918       2.91970273536806
H        -0.39531311079981       0.61537070744166       2.67802691662378
H        -1.00998075023217      -1.71057328471075      -0.25837282034661
H        -1.82061048388707      -0.99699160259064       1.14958048514235
H        -2.46793793286045      -0.37326639226435      -1.76809868725828
H        -3.15245634410155       0.47188047837698      -0.37132619341242
H        -4.03400356171834      -1.72876802009887       0.49085928974115
H        -3.41540222422114      -2.51983386885696      -0.96575033557956
H        -4.87087372143954      -0.96398373389606      -2.35290092355508
H        -5.74357036947854      -2.11633122139697      -1.33433219723899
H        -5.29849306005060       0.84656362466371      -0.68817216909434
H        -6.81406658764141       0.08225631798832      -1.18057971014987
H        -6.09010480970730      -0.31620601696612       0.38601368148189
S        -2.38026287974748       2.88136984286754       2.08242097841799
O        -0.97405035943221       2.60898216963006       2.39535603951573
O        -2.74814601079976       2.48182724993918       0.73351487066418
O        -2.87036614086542       4.15659050194444       2.52175279968222
C        -3.24907602516110       1.61651640096268       3.13015827773270
F        -3.10667707535061       1.85050277956777       4.42761441489837
F        -2.70105407158521       0.40787102556027       2.87918313988871
F        -4.54194420280170       1.53043141661584       2.85337329114017
