44
C12H26BF4N optimized with ADF in AMS.
N        -0.50280145078122       0.35619204684572       0.02425397571497
C        -1.26352069706498      -0.41600562226671      -1.03146653867809
C        -1.47516080499481       0.80390445803511       1.11310893819526
C         0.59652606216023      -0.48288720854913       0.65452210483929
C         0.08075060394757       1.58330144788433      -0.65275310586773
C        -2.02415417885199      -1.60205958906567      -0.46486827955241
C        -2.28224249257393      -0.34523841870106       1.69154332952640
C        -3.00700716730676      -1.14864875120044       0.61480946021255
C         1.66411539156488      -0.99447370105172      -0.29323663270360
C         0.95989142189364       2.46383254840813       0.21716241604848
C         2.72152902851747      -1.75081082049751       0.52215942648888
C         1.43812205433538       3.66528485611180      -0.59793872284304
C         3.89750998701026      -2.20617882187324      -0.33501744286498
H        -0.53702531627377      -0.71456848882662      -1.79998340985193
H        -1.96483075778723       0.30598726900597      -1.48171868851168
H        -2.13234034583611       1.54290973108285       0.62442075622094
H        -0.87798643787881       1.28693475716918       1.90189582684428
H         0.10500127621463      -1.31068703965142       1.17684841280450
H         1.05074512083704       0.13496926160515       1.43771213987866
H        -0.78708758138738       2.15174521118060      -1.02699888841434
H         0.63906092934333       1.21548531308061      -1.52804528390422
H        -1.32175422976859      -2.35022897554154      -0.06123547445587
H        -2.55179935517441      -2.08723093515835      -1.30345009356646
H        -2.99947728400423       0.10345205434701       2.39853206437716
H        -1.62461456281277      -0.97798518054395       2.30818000719161
H        -3.78785150587683      -0.52213816157216       0.14437024124284
H        -3.51628297836648      -2.01849346507795       1.05910877484477
H         2.15972344027241      -0.15799528955956      -0.81724475646294
H         1.24875692730664      -1.66748434683876      -1.06528283694193
H         0.41642045674358       2.80290106433471       1.11080676895416
H         1.82728161519316       1.90109224729387       0.59471777160626
H         2.24767631196535      -2.62258512730144       1.00737711851829
H         3.06811044416064      -1.09997394816716       1.34226736467091
H         2.06873741842542       4.31512026414021       0.02566340414933
H         2.03418344069300       3.35107215918809      -1.46950582571865
H         0.59182771353434       4.26823700946359      -0.96404614513172
H         4.40282946161665      -1.34451136355748      -0.80116041172831
H         3.57220405491542      -2.88366575945373      -1.14139970938915
H         4.64217927716232      -2.73915480314007       0.27475080566612
B         1.06457488041864       0.70632483066950       3.87798947952395
F         0.37639470701784       1.86080984793095       3.34110388032890
F         1.38515374333162       0.90604410176192       5.21753937796935
F         2.24408269859343       0.50515482453263       3.08115384906947
F         0.20846397396537      -0.43016500187627       3.71055187609973
