37
C11H20F3NO2 optimized with ADF in AMS.
C         2.76539353690578       0.46058513535829       1.60823750081928
C         1.84786514546854       1.41165142302692       0.83517382226969
H         1.27018822916554      -0.77023186828264      -0.61747149000658
H         0.12412752869054      -1.41996788294995       0.64633097115417
H         2.89883025546051      -1.64025634550831       0.91473950437379
H         1.81199285037086      -1.41205893552562       2.30705238636527
H         2.77920444113496       0.70660192696077       2.67999062381078
H         3.79596242148214       0.55709818424849       1.23825072678239
H         1.67497769754208       2.38647778509030       1.31117569914666
H         2.20557943817454       1.57100453690199      -0.19312005922945
H        -1.06678547093924       0.07047939964378       1.97620826412772
C        -0.20087770828620       0.74227054033360       2.02841951761451
H         0.44994784953810       0.36111107867695       2.82181421638647
H        -0.47965377213070       1.78936416605119       2.20371156149771
C        -0.31878306097861       1.24451003006303      -0.39418637168032
H        -0.54249906003599       2.27800058988934      -0.08685651992601
H         0.33214605867700       1.28734753289264      -1.28281903851602
H        -1.90608142621213      -0.10339886326672       0.22112957692084
H        -2.64765383822871      -2.16677324002307      -2.72136013093948
C        -1.47816204761636      -0.55766263464779      -1.82883796127429
H        -1.34544677890678      -0.01792219957597      -2.78562645071394
H        -0.58466027100526      -1.18765045480172      -1.69297022411289
C        -2.70627770454462      -1.46142527434695      -1.87892034218774
H        -3.62847055617815      -0.86887318665333      -1.99297590282922
N         0.53309056294308       0.67336849726872       0.71878580597525
C         0.98104508155750      -0.75315008721692       0.44354536867228
C         2.17247569571689      -0.95497536447438       1.37273174801317
H        -2.77936721122148      -2.03681596263741      -0.94257171925889
C        -1.59019004434791       0.44717196097682      -0.67912459538971
H        -2.39677059065027       1.16609129335895      -0.90588893532533
C        -1.15353975516701      -2.54202726646113       2.50663083958984
O        -1.66036866937019      -2.00856443662112       1.47731194331335
O        -0.14076153738219      -2.22156395156270       3.16763578254061
C        -1.87799467592284      -3.83410410292450       3.01333655144880
F        -1.15271680694341      -4.94864737873971       2.65866792889400
F        -3.12980646628827      -3.99711771280233       2.49531967645344
F        -2.00439575187173      -3.85841719531951       4.37392615371988
