20
C6H8BF4N optimized with ForceField in AMS.
N        -0.70519020907891       0.00912108783334       0.03743490955919
C        -0.02714832348651       1.19598858341951       0.00057104312594
C        -0.02804219136918      -1.17846962464220       0.05228783962700
C        -2.16835724657813       0.00872180398242       0.00766754775002
C         1.36980588941274       1.21301646880283      -0.01173202835268
C         1.36832536407933      -1.19835890153184       0.02452255331211
C         2.06925614338540       0.00659381406244      -0.00446109291304
H        -0.56391444690512       2.13701989004934      -0.02110519898150
H        -0.56559369400133      -2.11885210317093       0.07528040888790
H        -2.57429062698929      -0.88708509310355       0.52531133754469
H        -2.57296168011055       0.90611837085425       0.52329235291421
H        -2.51601407179264       0.00658360486839      -1.04691151120014
H         1.90358606095487       2.15421085709653      -0.03293511353983
H         1.90010362572971      -2.14097268892948       0.02119461524927
H         3.15090699059155       0.00536640461431      -0.02438668138971
B        -0.17387610573379      -2.87278722052078      -3.88479178173746
F        -1.05317849421963      -1.93046894946345      -4.48081198101759
F        -0.34127653308260      -2.85018687637440      -2.47705362951772
F         1.16825717077032      -2.53940190252828      -4.20732193295746
F        -0.47028819797623      -4.17297528241844      -4.37215140306321
