31
C11H14F3NO2 optimized with DFTB in AMS.
N         1.41366547025176       0.17917149029063       0.35523688471403
C        -0.98262732599058       0.32183863708394      -0.12372981143914
C         0.09499023250417      -0.22916854635465       0.81858059252325
C        -2.38263866662250      -0.08789181834646       0.34086484822686
C        -3.45976669125362       0.45935983931106      -0.59406127329842
C         1.94186750950859       1.38964728711848       0.74282264541513
C         2.11683897457050      -0.60244632205705      -0.52766973430579
C         3.07551264569913       1.87428964389683       0.21886546977837
C         3.26436132072909      -0.19074773699642      -1.08545738445995
C         3.74775842270809       1.21177736967425      -0.92921379691687
H        -0.79885238339399      -0.05602358050149      -1.13421815360677
H        -0.90401869434866       1.41279437579790      -0.15468684874336
H         0.05494981127814      -1.32268001066186       0.84654510207123
H        -0.05492991861771       0.15227440661884       1.83368637734348
H        -2.44970526450672      -1.18081818041492       0.37468530940017
H        -2.55415890894616       0.28903202486241       1.35502015531934
H        -4.44665262818191       0.15617505062229      -0.24417356570681
H        -3.42069448191271       1.54887545355441      -0.62485497521769
H        -3.31667535230608       0.07810508200751      -1.60588538528756
H         1.41605383057754       1.89419838873860       1.54569277278651
H         1.71959377550682      -1.59804376286802      -0.69354224395151
H         3.48719148457794       2.80425308755620       0.58598496740911
H         3.82085671315270      -0.84597926886221      -1.74220302937967
H         4.84165355924199       1.28182921889322      -0.87922069911177
C         2.84640449786826       3.03731672204512      -2.37199460863876
O         2.49756794193362       3.81567153946183      -1.53314561714421
O         3.44555827925923       1.89413628858743      -2.25673526324734
C         2.57725460268740       3.31647497301048      -3.90112083756738
F         3.70546531634274       3.25351796625214      -4.61119072536731
F         2.04100588039540       4.51898194632344      -4.08094182694896
F         1.73022910548751       2.40673545145604      -4.39523511014822
