26
C6H11F6N2P optimized with ADF in AMS.
N         0.17833088575604       0.41933203420708      -0.40203245518428
N         2.26997908804047       0.16918546157442      -0.92475472686110
C        -1.08890106652523       0.26973946744543       0.33202281016226
C         1.26364426949739      -0.33743528662062      -0.20499227654096
C         0.50934556235914       1.45490179056961      -1.25060710008778
C         1.82294847358166       1.29364318533400      -1.58164985514102
C        -1.04763617133113       0.96862999774673       1.68073812851230
C         3.62612136446259      -0.37414805685498      -0.95647945327287
H        -1.87702133869016       0.67271553973386      -0.32201391343012
H        -1.26935049048058      -0.81131876685836       0.43503955597452
H         1.33060239422279      -1.18624799288856       0.46150892501246
H        -0.20079750651413       2.22809869292779      -1.51485758996931
H         2.48450231339431       1.90016154089127      -2.18723752694525
H        -0.23509699821144       0.57412944010753       2.30756107004055
H        -2.01060389365307       0.81405616578001       2.19045096766634
H        -0.86864891443585       2.04579583871105       1.56148938981294
H         3.67520931934787      -1.19505656798528      -1.68480828594461
H         4.31453969165739       0.43213325875675      -1.22973190499161
H         3.88490050601500      -0.70723781344408       0.05512134482551
P         2.98280164989922       1.73626720183191       2.35552509216622
F         1.90030916424347       1.75088330973369       3.59574374435219
F         1.76240996101334       2.18720687447930       1.30375978249345
F         3.36214557368777       3.30761080319015       2.60132661397671
F         4.02131775710802       1.66667992427188       1.04930098312386
F         4.18367725493588       1.23554373012074       3.34857724292900
F         2.57889889161924       0.11247074593867       2.06768597672057
