21
C5H9BF4N2 optimized with ADF in AMS.
N         1.12734775584263      -0.05173248931823      -0.04725994035971
N        -1.03317676616422      -0.20867445560109      -0.06080275133272
C         0.10344674135224      -0.90849727758180      -0.14594093995217
C         0.63616147935543       1.23157050367628       0.10202448335927
C        -0.72581395170111       1.13078642535013       0.09394738021672
C         2.52744675747202      -0.46816830592058      -0.08291618564395
C        -2.37338967083034      -0.80201144125206      -0.09819963188250
H         0.22378639783174      -1.98737302218185      -0.26591074037507
H         1.28821720994804       2.09116926970338       0.19859933942200
H        -1.49326340456432       1.89001303383979       0.18593086583480
H         2.54668025392275      -1.56251257324411      -0.16631992110023
H         3.02316630037550      -0.01524252217068      -0.95113658706691
H         3.02128025924107      -0.15860846185243       0.84671925275551
H        -2.86718551263782      -0.62244157787302       0.86557552486081
H        -2.94256838262453      -0.34513730253504      -0.91789458176601
H        -2.25474021339927      -1.88045018123038      -0.26681118744601
B        -0.43610745523355      -4.09511746752277      -0.16447619312820
F        -0.52603837955869      -5.47743415176760      -0.17937199724000
F        -1.10063313310580      -3.49309683851094      -1.28801844640533
F         0.95563544426750      -3.65970801327022      -0.23085911025210
F        -0.99561927158930      -3.51809794803678       1.01784668370181
