31
C7H13F2N3O4S2 optimized with ForceField in AMS.
N         0.03386408111665      -0.58257815230191      -0.46732363790030
N        -2.03386133196372       0.14282631127338      -0.09236120891310
C         1.39215103362804      -0.67925678509545      -1.00003904487897
C         2.43518434078067      -0.40263767013286       0.08952207653102
C        -0.88926491658519       0.35105519821540      -0.77148351541275
C        -0.54875734547152      -1.40934290941817       0.42512942117591
C        -1.83200807081132      -0.95772510376059       0.65850238686103
C         2.31913159024203       1.01525892880862       0.64765646239260
C        -3.24734991211381       0.94826056065257      -0.14467185107983
H         1.52949066569664       0.04292608035906      -1.83493291268096
H         1.55089118494241      -1.69960024565636      -1.41159869221019
H         2.32268192020857      -1.13605903218931       0.91694663330230
H         3.44826445930314      -0.53272339458019      -0.34772659329499
H        -0.72743434467725       1.16929564763528      -1.46287559981078
H        -0.07619518390626      -2.27400279889318       0.87332818773767
H        -2.56164524808264      -1.39896133224789       1.32531669798054
H         1.35409028670378       1.14391797226146       1.18241186077934
H         2.38677928632773       1.76151179301104      -0.17240546051669
H         3.14528286880854       1.20061396107821       1.36590304950094
H        -3.12465775659399       1.79139529499466      -0.85776548697424
H        -4.09939943674921       0.31853826697324      -0.47628508842804
H        -3.46577358710171       1.36006025940117       0.86312186569405
N         8.09665897026113      -1.00891252383436       1.28375516346838
S         9.51524138836594      -0.83961882403681       0.48609609249392
S         6.69231706746012      -1.24756465771458       0.47863349606957
F         9.52708080408667       0.62909078353967      -0.31809386403886
F         6.71065825143196      -2.76412602332239      -0.23129771063468
O        10.65189789088626      -0.88192354990309       1.46707580405150
O         9.67179664075927      -1.94586840835378      -0.51866591921630
O         6.53735845531826      -0.20915825883468      -0.59638918772765
O         5.54167991132877      -1.15794261122814       1.43972292877956
