29
C7H16BF4N optimized with DFTB in AMS.
N         0.98529548186438      -0.24446169236973      -0.06822111831374
C         0.33874382643436       0.83778006559601      -0.88402262092964
C         0.21409322658266      -1.52446928288824      -0.21092784376220
C        -1.12660515813661       1.04140575588305      -0.52358030056117
C        -1.25438582621103      -1.36379635216236       0.15893649121749
C        -1.90652342020271      -0.26336138802667      -0.67632594312141
C         1.09480924723761       0.15528559508976       1.35742334900696
C         2.36435314722872      -0.46624125559448      -0.59145889048561
H         0.42827900537544       0.53494439009561      -1.93058436066815
H         0.91521845408220       1.75183083757191      -0.72290293224273
H         0.70015334750300      -2.26805573416503       0.42536510997662
H         0.30757713799483      -1.82984767758702      -1.25612696929397
H        -1.52658961790904       1.79176047014635      -1.21031267289197
H        -1.23022108394980       1.43349837236533       0.49360344207681
H        -1.36862606973420      -1.15307861666138       1.22749427330372
H        -1.74488287330365      -2.31908248027890      -0.04494604839668
H        -2.94014478609033      -0.11731891398764      -0.35371157158264
H        -1.90716576079153      -0.56167486357648      -1.72780278616874
H         0.10705872943532       0.32615824256371       1.77699287090123
H         1.59237203732180      -0.64149807734645       1.90782869143454
H         1.68199551309734       1.06987904205014       1.42131105980611
H         2.29919716594158      -0.75252875479884      -1.63977117281198
H         2.93034403579234       0.45793467052635      -0.49041365542293
H         2.83451109839208      -1.25987001898330      -0.01424537558987
B         0.91777844605710      -1.27422158138268      -3.66816087139804
F        -0.38975029064609      -1.05668173852846      -3.15162457763515
F         1.52259271387773      -2.25331533767312      -2.83888029659784
F         1.63719990194891      -0.06692318033291      -3.46730685152735
F         0.89307478820761      -1.64826744864454      -4.97465053382169
