37
C9H13F6N3O4S2 optimized with DFTB in AMS.
N         0.47264756176408       0.09121467331912       1.39502622150910
N        -1.40034165337911       0.94415033900642       0.76179059929278
C        -0.75058462390214      -0.20162771603947       0.95553872622170
C         1.51024240930656      -0.86024576509424       1.80148237947118
C        -2.79237352516088       1.10140498185362       0.33774883448322
C         0.59282240056553       1.44752614909410       1.51728569461971
C        -0.58703831763464       1.98693566838214       1.11586599854926
C         0.91647239232896      -2.15105689639035       2.34353512367628
C        -3.31954578082448      -0.13245894119798      -0.37468826218680
H        -1.15450221599513      -1.18698168983069       0.81196739236726
H         2.15171149820586      -1.05377598285033       0.93477020443184
H         2.09989742058508      -0.36097484247756       2.57516607984768
H        -3.38778609206906       1.29959684019777       1.23385170900283
H        -2.83322849937641       1.97905617917527      -0.31398522675520
H         1.48709871080509       1.90541817069910       1.90113526374107
H        -0.91949161152391       3.00900716519722       1.06999257148575
H         0.20390857309206      -1.93110088759078       3.13772138373955
H         1.72304498534337      -2.75745784738822       2.75330067828651
H         0.41683129231543      -2.71976142824645       1.55995013793709
H        -2.66339709843000      -0.42176805268178      -1.19538844609815
H        -4.30587759674956       0.09640560950817      -0.77634391035034
H        -3.41802042660715      -0.96211550424721       0.32349013699070
N        -0.97360255461110      -0.00119073950010       3.76508128901338
S        -0.11650577197246       0.73546871090155       4.90624024373131
S        -2.54868796886818      -0.19435500382080       3.95913634962655
C         0.15434102425786      -0.50958475624725       6.28078171481829
C        -3.34826131006553       1.50708040911696       3.96351813408097
O         1.20250948936705       0.90672987203076       4.32998466549099
O        -0.75085454910142       1.88010592842192       5.50732289698223
O        -2.97061263281136      -0.82460861184424       5.18113493524137
O        -3.00142209503610      -0.75950423950123       2.70046512896153
F         1.30477735517903      -0.25295432148526       6.88106013516268
F         0.21687175495652      -1.72464120194689       5.74697506195194
F        -0.81601150792397      -0.47085126341948       7.16745447345438
F        -4.51395365872302       1.42357210670097       3.32783860128233
F        -2.58239158503648       2.35742257511928       3.27579550992257
F        -3.55142558867042       1.97586028407601       5.17054215161645
