73
C21H32F18NP optimized with ADF in AMS.
N        -0.88314658711149      -1.20716127791053       1.53363044050906
C        -0.92759272664823      -0.93946375444950       3.03404081897587
C        -2.31012789676538      -1.38739118557317       1.03010226644762
C        -0.30391243550207       0.00176901681500       0.82747590319395
C        -0.05408760922053      -2.45553354679532       1.26363458339097
C        -1.69441724271779      -1.99457823485878       3.80687146894819
C        -3.09052147896810      -2.44539970704102       1.78971772844891
C        -3.12021836910064      -2.13945154419342       3.28483364886353
C         1.13231344541273       0.34576403178139       1.18244090796498
C         0.28235465413167      -2.70668163206760      -0.19681700387144
C         1.61864020844713       1.52899084804736       0.34122517858915
C         0.96992274204405      -4.06664945671119      -0.35641655778108
C         3.05107697577850       1.93473022475416       0.68463834560834
C         1.46676261368838      -4.30130707348782      -1.78096948081908
C         3.54488203334210       3.11285371411228      -0.15001195920122
C         2.09537191332967      -5.68231721361696      -1.95137633238698
H        -1.40625935690025       0.04939847422855       3.13672007483518
H         0.11479180463060      -0.86667453379778       3.37082186835672
H        -2.23823143080311      -1.60537703918814      -0.04452868379267
H        -2.78535318830888      -0.40003373362561       1.15267281629581
H        -0.97199726613125       0.84187329399388       1.07482619741059
H        -0.40180009028998      -0.19513671494329      -0.25054044788131
H        -0.61479539623007      -3.29595291700278       1.68232794329579
H         0.86098839528262      -2.35249584068462       1.86496636217927
H        -1.69281171554932      -1.68424271818289       4.86456538798012
H        -1.17964241025607      -2.96722812446697       3.78358303391405
H        -2.67554916791729      -3.45241258452917       1.62331157886998
H        -4.10923420291764      -2.45556999868747       1.36622934779504
H        -3.68414792168788      -1.20313345994265       3.46115045594775
H        -3.63047982596630      -2.94827338006897       3.82506948268943
H         1.21731740766404       0.60847813424223       2.24945110751496
H         1.79653043915192      -0.51570124529210       1.00463644099525
H        -0.62866663580848      -2.69890194321563      -0.81961604645285
H         0.95025910419627      -1.91993265651118      -0.58852645586713
H         0.94672908738102       2.39441340420173       0.49253547780152
H         1.55775952172686       1.26931914118046      -0.73219304603925
H         1.81911746470150      -4.14053842854171       0.34686775068814
H         0.27348949798334      -4.86882538191965      -0.06332672124722
H         3.71817596310166       1.06616867423959       0.53662684675001
H         3.10677727560931       2.18919418772833       1.75867178966569
H         2.20200943367474      -3.51853551952478      -2.04647948270891
H         0.62199274904549      -4.18710364723214      -2.48549955864375
H         4.57596237041831       3.38722941309051       0.11819226689533
H         3.52993707581883       2.87034851637069      -1.22471636284920
H         2.90929627710456       3.99973732751310       0.00318945141719
H         2.45724924983827      -5.83505403557756      -2.97882637562220
H         2.94701831135272      -5.81447821733782      -1.26560703442523
H         1.36560206114703      -6.47469981617485      -1.72387578725761
P        -1.44763254897622      -6.21982356401445       4.51840938200886
F        -2.26791181870577      -5.15551387125463       3.47417785508290
F        -0.32170223539250      -5.04592051501018       4.92248125800415
F        -2.53328654710418      -7.41288706858161       4.13230341588258
C        -2.63022345796255      -5.43128815434459       5.89311097325016
C        -0.36918836882824      -6.55152421865731       2.81213129875737
C        -0.48219793473367      -7.57920433207848       5.64489338712388
C        -4.16655526683113      -5.69046955816121       5.84595796715680
C         0.98348810210828      -7.31296456198072       2.60392561065244
C        -1.07073460535749      -8.32213958160940       6.90070056539782
F        -2.52485546395607      -4.04656467974378       5.83470803007557
F        -2.23606863177354      -5.77287278178187       7.16430053426571
F        -0.02281714541134      -5.26424791431622       2.37825561010222
F        -1.21236388054464      -7.06780890049226       1.85363834877351
F         0.73744654310082      -7.10220260382252       6.06627065645728
F        -0.23413217646281      -8.61056322500820       4.75899030373049
F        -4.76662034815711      -4.98088825795313       6.85014737476958
F        -4.47909551181389      -6.98806871760704       6.02532484050730
F        -4.71187002427165      -5.27015559806036       4.67618055230668
F         1.53568137745429      -6.92470707821433       1.40511549400866
F         1.87622989885627      -7.00076862093373       3.57046386625965
F         0.84116815470884      -8.65085901798437       2.52768338395668
F        -0.84414138706137      -7.64554687889554       8.05015849190160
F        -0.44606745498944      -9.52798114698404       7.03349653552749
F        -2.39470107579745      -8.56106025615623       6.77782367664935
