34
C8H11F6N3O4S2 optimized with ADF in AMS.
N         0.55780159531985       0.44482761877441       0.69962301164816
N         2.69850035457283       0.11080763120702       0.80616045536425
C        -0.87057554472835       0.40502017464682       1.04719871978471
C         1.51394801667549      -0.27853783397194       1.29538403712961
C         1.14844555971774       1.34023744283279      -0.16421246281079
C         2.49278194001496       1.12886539049690      -0.10023052599697
C        -1.18835747076096       1.35015571707750       2.19413984644861
C         3.99407365326598      -0.33840749453745       1.30882627486553
H        -1.42207489770783       0.66206973403349       0.13023138772894
H        -1.11259082535341      -0.63961758374628       1.29559762136463
H         1.36557787987488      -0.99844692394560       2.08837824299944
H         0.57627671022277       2.07642276676244      -0.71360653186686
H         3.31155084910518       1.64380766735523      -0.58496146188665
H        -0.62772143496649       1.06493809293627       3.09515602056430
H        -2.26713203444143       1.30912390065454       2.40684907594345
H        -0.90977316291244       2.38217855482525       1.93791080936030
H         3.93475352633508      -1.40644945876706       1.54829095668541
H         4.74393680200050      -0.18098982041836       0.52623121547537
H         4.25463281301592       0.24036965610332       2.20668174660467
N         2.01987437956548       2.42239134528012       2.70901669557035
S         2.45761128034159       3.92474390736876       2.30103200342533
S         2.43881363083278       1.65371155219212       4.05589683206102
C         4.32999122337813       3.91011056131498       1.97417910042525
C         1.73355888397742       2.59485490217007       5.54829452832205
O         1.89687910660620       4.15285291428194       0.97158765759638
O         2.29862399707336       4.91667700766244       3.35362057717666
O         3.87884018997892       1.57889456258983       4.29665546157872
O         1.66164921340243       0.40635260964795       4.06265506521760
F         4.63729516034392       4.95677472864431       1.17317845860428
F         4.71201856556627       2.76510456818938       1.32634775932853
F         5.04240133639112       4.01201912264334       3.10884633120357
F         1.64425002193348       1.73258797944705       6.59037549302547
F         0.49296169247088       3.05629362162733       5.26446464015077
F         2.52302280918772       3.62046655062109       5.90748148370790
