28
C8H17NO2 optimized with DFTB in AMS.
N         0.70393614633283      -0.56076324103575      -0.02053480172144
C         0.63338832864298       0.79538911019297      -0.65168545743869
C        -0.72004725059602      -0.92899737736936       0.23552389309159
C        -0.51660914363227       1.49906587658915       0.05830883912792
C        -1.40731417337861       0.37938041522660       0.62624958405199
C         1.46719601628038      -0.48351383267009       1.25473153296306
C         1.37724496075818      -1.52478508330338      -0.92492888954332
H         0.42770810054852       0.65780514585471      -1.71481280620501
H         1.60656660183390       1.28589263504477      -0.51164397157180
H        -0.76580559294761      -1.69617362868843       1.00946779766224
H        -1.13352110847361      -1.32819411194824      -0.69353741684205
H        -1.06669169963026       2.12951600543605      -0.64212755148251
H        -0.14171167930074       2.13444840878702       0.86319009951222
H        -1.49051394926093       0.46303825180200       1.71175034636201
H        -2.41405117894253       0.41383960101079       0.20608820765986
H         2.45457025606142      -0.07275894711316       1.02562950666730
H         0.95130210480103       0.18191023819133       1.94221397648744
H         1.54430849332286      -1.48101030991391       1.68334314899152
H         0.80380590602447      -1.61197361634535      -1.84584452233081
H         2.37591307718950      -1.11573346006896      -1.14064211287832
H         1.44357497759949      -2.49191652517772      -0.43014028611483
C         5.40884534440504       1.77048079637843      -0.92532261672588
C         4.03094620253265       1.11948108210741      -0.67343799464846
O         3.69264513907342       0.19833562592288      -1.44434823100908
O         3.35227022612095       1.57764362622497       0.27604837171174
H         5.74299393261773       2.30532559498978      -0.03860155295883
H         6.13322512294476       1.00697626238398      -1.20339097015130
H         5.30735426527245       2.47349470559150      -1.75205076706655
