45
C11H24F2N2O4S2 optimized with DFTB in AMS.
N         1.97231451292445       0.34965137184835       0.95996192642712
C         2.10978768719215      -1.00623008420346       1.60750433363789
C         3.27575461936018       0.56980812609167       0.24122916562495
C         0.85879254824101       0.35112680236463      -0.04654569919195
C         3.23410086582041      -1.74088467112897       0.87363119722291
C         3.68387436267596      -0.80722457216783      -0.25178335421091
C         1.76475780139337       1.41867792064359       1.97340341013158
C        -0.54165108848521       0.27909753184693       0.56045869232571
C        -1.57323198885523       0.06700776871595      -0.55437661764372
C        -2.99325775538594       0.00870915292629       0.01693976406778
C        -4.02800044932436      -0.20161339826266      -1.09308097572284
C        -5.44536964937859      -0.25931200126539      -0.52656947040964
H         1.15566302122910      -1.52835734914843       1.54024229823768
H         2.35010641407766      -0.85624681539413       2.65885032407532
H         3.99520196349434       0.94398889429142       0.97088088577192
H         3.13858568220961       1.30866816763342      -0.54816297732628
H         1.02703797221075      -0.50224478398202      -0.70795887337228
H         0.95535545231534       1.26973967630711      -0.63163175428626
H         2.88879047112711      -2.69971145296430       0.48444810340867
H         4.05968508322540      -1.92183769087013       1.56550560139322
H         4.76284821233453      -0.85125441970379      -0.40049479530419
H         3.18795080363466      -1.05202073448818      -1.19472536882067
H         0.93387665121442       1.14839641670196       2.62007126103868
H         2.67214323624089       1.51251230958832       2.56901585358515
H         1.55994516351738       2.35587446443962       1.45889104291129
H        -0.61193449898240      -0.54291459790272       1.27747787391141
H        -0.76999721386529       1.20857522797387       1.08850944126287
H        -1.35107152542477      -0.86629577856926      -1.08260453678584
H        -1.50069857735595       0.88659574558606      -1.27710388661917
H        -3.20957454797786       0.94178772353284       0.54802773611415
H        -3.05984245052429      -0.81075268618141       0.74048490049714
H        -3.95679888487024       0.61796638103101      -1.81606107846434
H        -3.80811340037032      -1.13482361067443      -1.62245283775143
H        -5.68999681253907       0.67131648315045      -0.01295945445556
H        -6.16281748272195      -0.41029922962390      -1.33307024497853
H        -5.54048533362742      -1.08272470695204       0.18239692095399
N         4.67275469104852       1.03976509769988       3.24791805613031
S         6.09723130542469       0.90058934812811       2.54702317634705
S         4.23330156681720      -0.11083412052910       4.25431323503637
F         5.91246146479224      -0.43981043900849       1.61224727489540
F         5.10054418121753       0.13009301922046       5.57969428149517
O         6.18565455072894       1.95353899558052       1.58726067061140
O         7.20699269852423       0.59903624173676       3.38044938666615
O         4.52876048173284      -1.45195766675561       3.85104005844325
O         2.88229898616397       0.18763802843710       4.63631566401906
