34
C8H18F6NP optimized with ForceField in AMS.
N         0.01111355336175      -0.00676820417943       0.00941954606101
C         0.92818319068889      -0.85120285240788      -0.81537949261816
C         0.91301516071616       0.83870662140961       0.85068076122841
C         2.33462850214639      -0.30335592708182      -0.67575232984630
C         2.33484577301655       0.33732632962205       0.68400450762999
C        -0.83197008881018      -0.87276132978412       0.89562634879307
C        -0.81695867762230       0.85785395520784      -0.89300432758181
C        -1.82177798853337      -1.78257178586470       0.14540584913428
C        -1.82693233599990       1.76266577722540      -0.16313227079281
H         0.64175864489676      -0.89129628984834      -1.89097790600979
H         0.95880087611076      -1.90772914869518      -0.46124214540115
H         0.63687449574521       0.83897971810861       1.92963790699420
H         0.90932878756063       1.90477735897219       0.53146650196664
H         2.52131376909270       0.46510572908447      -1.45827752082617
H         3.10096786886324      -1.10599409339935      -0.74958401767329
H         2.56043484388662      -0.42469413689803       1.46258036636200
H         3.07594973408898       1.16436647432627       0.74545143109320
H        -0.17797325305766      -1.52304655010361       1.52182921107275
H        -1.41088181345401      -0.25508899100496       1.61650903636638
H        -0.15277392585448       1.51152560610461      -1.50479466582062
H        -1.37979188332296       0.23898357535676      -1.62568437320252
H        -2.28467635024801      -2.48775348575218       0.86743776202353
H        -2.64070309092004      -1.19135798456884      -0.31231141767714
H        -1.31820488038645      -2.37886749371420      -0.64226530090899
H        -2.28365773083319       2.46068654326816      -0.89597359411636
H        -2.64896729609376       1.16703950285618       0.28316311089801
H        -1.34294481929468       2.36725328954049       0.63029213552317
P         1.75903034588550       5.77582673235428      -0.95706542274381
F         2.00388976680840       7.45000505779989      -1.25435288084816
F         0.15246375680879       5.90384894161911      -1.55163305531106
F         2.35833332494260       5.44671412433155      -2.53290230912766
F         1.53126390013056       4.08852817937429      -0.73643531134525
F         3.34063412865278       5.64921429529715      -0.29856391963862
F         1.16979233682773       6.10198348564370       0.62332424984303
