39
C9H20F2N2O4S2 optimized with ADF in AMS.
N         0.97322472636594       0.37341348356374       0.10771832226645
C         0.51023761562859       1.70133049156110      -0.48657392445365
C        -0.20220273905345      -0.57231988105496       0.19491606017601
C         2.02288410494183      -0.19180771703099      -0.84158357019769
C        -0.66750623410590       2.30443826440698       0.25773175131703
C        -1.35996299982646       0.00645540007614       0.99122703950515
C        -1.83406618067059       1.32593098535999       0.38176689645254
C         1.58406369796238       0.59469945418990       1.46074581400246
C         2.79842878418094      -1.39362293973168      -0.33206674028581
C         3.79656569403899      -1.82514336018105      -1.40881186529268
H         0.24104790733447       1.47029641627186      -1.53048086488514
H         1.38604606987122       2.36498287327306      -0.47331351176940
H         0.17140877656432      -1.50992582289995       0.62896180275650
H        -0.51153027955870      -0.76555111364964      -0.84532478504840
H         2.71050086009507       0.64403523473790      -1.04205286946185
H         1.48233105975211      -0.43493452172170      -1.77106704083261
H        -0.96612533130418       3.20643271314831      -0.30144488578830
H        -0.34298413518671       2.66814077183625       1.24597983110650
H        -1.06749360730489       0.14793292259201       2.04555258916318
H        -2.16860056348805      -0.74413005329991       0.99021107085720
H        -2.64136055845402       1.76204175841173       0.99202000473364
H        -2.26082319584947       1.12724506798567      -0.61962749752222
H         1.66460214195010      -0.37069607016182       1.97367178501815
H         2.57412500340803       1.03566133714144       1.32446230159964
H         0.96461131270244       1.28459767386311       2.03798293383644
H         3.35866081394815      -1.12075916037806       0.57493707934485
H         2.12936978792973      -2.23513998782727      -0.08489627930078
H         3.28316729874846      -2.12746255572336      -2.33490026914099
H         4.48449222802405      -0.99950077085246      -1.64734636769616
H         4.39857900474088      -2.67557221197975      -1.05951739643917
N         4.72100259558394       3.69808009667674       1.13739710428213
S         4.80417102219519       2.66078223941073      -0.06534727201213
S         3.39305624082217       3.92646115597678       2.00593119245776
F         4.79530509142701       1.16162178393198       0.71936366568638
F         3.44936760348892       2.62272587230417       3.05285776116380
O         3.62286839334629       2.54253483638082      -0.92145158557576
O         6.11410856944857       2.74015406086457      -0.66658387570158
O         2.11469160658939       3.72198823606861       1.33130975671213
O         3.59228818641325       5.07951401335901       2.85090050556640
