29
C9H13F3N2O2 optimized with ADF in AMS.
N         0.91000567639888       0.78500002250462      -0.18466580468656
N        -1.24810604425922       0.55560027949745      -0.10465848046021
C        -0.13839371923364       0.15901465480511      -0.73718578510797
C         2.29687950377886       0.68538769455012      -0.66937781721527
C        -2.62001445700999       0.17966385422520      -0.48402842525270
C         0.45321203370766       1.60782555680222       0.82235778095754
C        -0.90323250461220       1.46359760414886       0.87312132645060
C         2.91956387592822      -0.66534391825324      -0.36114783099467
C        -3.25992145596929      -0.74728887615695       0.53431352528669
H        -0.11194755910901      -0.47381973382998      -1.61469039042820
H         2.26635984699505       0.89445677542626      -1.74916671372201
H         2.84925837088104       1.50286724151808      -0.18562429499003
H        -3.17660977361423       1.12038680006770      -0.60960141664307
H        -2.55105610388624      -0.27633131428232      -1.48037481793563
H         1.12332160761946       2.23790080431150       1.39365817969591
H        -1.64468558575907       1.94766201937855       1.49576370285125
H         2.94183860774483      -0.85780255642672       0.72150669678453
H         3.95210748522138      -0.67874176092345      -0.73959722699417
H         2.37213941292647      -1.48118807843738      -0.85552369466201
H        -2.68782726074249      -1.68138164982860       0.63347531307755
H        -4.27638469881241      -0.99835258003107       0.19818772883699
H        -3.33838373692611      -0.27533784547124       1.52492556120432
C        -1.09004286431523       2.52370661129758      -4.81532540005605
O        -2.31325931042109       2.65125917099700      -5.01597865932298
O        -0.04331281945950       2.80789863668747      -5.42303193913505
C        -0.83141123106278       1.79672060038043      -3.41717081754214
F        -1.30804283925447       0.47757112257971      -3.40292052327345
F        -1.44289151822818       2.41002058719467      -2.33661176265324
F         0.50275025677330       1.67490429796841      -3.03781605566999
