69
C19H36F6N2O4S2 optimized with DFTB in AMS.
N        -0.71892004822581       0.75256259958593      -1.49633430376190
C        -1.05428277585802       0.86802455486322      -2.96462893082598
C        -1.12250804770373       2.01629188045267      -0.79314805458162
C        -1.42119001691434      -0.43227540635128      -0.86929132486535
C         0.77624902627610       0.61685652332766      -1.40662380073478
C        -2.48767625003759       1.30256377902809      -3.24370534423206
C        -2.58116931922823       2.39127100024918      -1.02488710538446
C        -2.84115733326143       2.59252306703986      -2.51510465554195
C        -0.79123360671780      -1.79348832193255      -1.15909987515562
C         1.33057809618933       0.55161248539847       0.01609111024185
C        -1.75750640387390      -2.89608571516471      -0.70386428053442
C         2.80385962878509       0.12769442380477      -0.03007799793642
C        -1.25362000443293      -4.27429323359304      -1.13888928561459
C         3.40175228244222       0.06851984176579       1.37876158039407
C        -2.27791113285675      -5.36087819587025      -0.79836166977431
C         4.87110152629179      -0.36320646922015       1.33799576264654
C        -1.80812351571327      -6.73341641492708      -1.27544331099780
C         5.46996287103815      -0.42724903669131       2.74170303391382
H        -0.35742862739504       1.59761490373859      -3.38695954514725
H        -0.86741491849497      -0.10759694777991      -3.41572842677925
H        -0.93173503932064       1.87726370106279       0.27243614983722
H        -0.47198262537799       2.81192368736076      -1.16901117939767
H        -1.45194121939857      -0.25565012276254       0.20860819934131
H        -2.44214996384355      -0.42550546540934      -1.24935369940193
H         1.04772370585321      -0.28137993745063      -1.96444753709746
H         1.20545213494303       1.47911521743603      -1.92391468441500
H        -2.57557851162776       1.43043528181418      -4.32523733237154
H        -3.18702634865703       0.52068453017906      -2.95011752399708
H        -3.24320160735640       1.61781335744462      -0.62764288457010
H        -2.77232526321970       3.31578152513379      -0.47374626448581
H        -3.89430327539483       2.82963476552755      -2.67932664501395
H        -2.23705376096122       3.42618662722599      -2.88851477876741
H        -0.60594000421068      -1.90477869262706      -2.22926681798333
H         0.16037083030469      -1.90671313101445      -0.63187445948915
H         0.77052095026215      -0.16454556328454       0.62091992460851
H         1.25355863640505       1.53134838950508       0.49578001688136
H        -2.73863132386783      -2.72067433632837      -1.15142412448734
H        -1.86860210303684      -2.85978948847065       0.38523865026816
H         3.36872152103582       0.83972145123596      -0.64097926483754
H         2.88238887851796      -0.85671315191027      -0.50307337211578
H        -1.08331294385681      -4.26619768959297      -2.22028081400958
H        -0.29678748780302      -4.49265428798802      -0.64991280171677
H         3.32158203989517       1.05424539309668       1.84973147965867
H         2.82832343341443      -0.63974721143172       1.98633035781547
H        -2.44173931983403      -5.38390163097182       0.28469210073325
H        -3.23005464785160      -5.11702816459769      -1.27839059887786
H         4.94705771801420      -1.34728703088993       0.86362561095173
H         5.44153388702084       0.34663988429277       0.72953489738140
H        -2.55066202626074      -7.49053615944134      -1.02232079532602
H        -0.86121006062908      -7.00348404911689      -0.80403560710355
H        -1.66938543864524      -6.73190983983732      -2.35742002289518
H         5.42109081135923       0.55021079690674       3.22348175560181
H         4.92619177943697      -1.14532066244098       3.35686875308728
H         6.51377942517975      -0.73625370973181       2.68738732972301
N        -4.79996459997667      -2.25729723111477      -4.59741349767541
S        -5.44269836201573      -2.64062022648511      -3.17339121910884
S        -3.22932725152481      -2.00020824928083      -4.62003116466914
C        -5.58492817765404      -1.00238069251083      -2.24580679176504
C        -2.37652988277513      -3.62334903737029      -5.02141778566448
O        -6.80500204725125      -3.02013708040250      -3.41016088214667
O        -4.63436973765971      -3.46572276449719      -2.30630856295582
O        -2.64065048165328      -1.62853244711940      -3.33557972354932
O        -2.90886628746619      -1.15153042277540      -5.74076816372054
F        -6.74777350607077      -0.92194654135489      -1.62452473193181
F        -5.47991190010765       0.02954400720775      -3.07969623901108
F        -4.61832994401257      -0.87501762326581      -1.33075929723803
F        -2.90484679592674      -4.63154722235217      -4.35421466177532
F        -1.09372654297567      -3.51457714905630      -4.68117923808032
F        -2.45090027042754      -3.87604151276983      -6.31643561976579
