20
C6H11ClN2 optimized with ForceField in AMS.
N        -0.54044976515404       0.22374457405065      -0.38440319725137
N         1.65963239225591      -0.00461763360933      -0.16780197460415
C        -1.94444252821612      -0.08600492910281      -0.64164653148966
C         0.51158116500858      -0.60399057948537      -0.53771914265697
C        -0.04067101117300       1.38222906772221       0.09188686348921
C         1.32556253174476       1.24000912938418       0.22580306946349
C        -2.69860235560530      -0.25829026153730       0.67226864015748
C         2.99309686667206      -0.59126052119097      -0.15138461896397
H        -2.40484732931382       0.73179409905086      -1.23685300192641
H        -2.02480514995101      -1.02679304973355      -1.22849742496035
H         0.44005723220274      -1.62610178053804      -0.88864110155143
H        -0.62625977531371       2.26061115433281       0.33075240107119
H         2.02040573117058       1.98292136593341       0.59502426728860
H        -2.24506708846154      -1.08289702657166       1.26314387598169
H        -3.76055539902039      -0.50722380045565       0.46507763120707
H        -2.65985616722334       0.68019224319832       1.26513627381660
H         2.95886977911402      -1.64535782450283      -0.50068357208718
H         3.66390122905510      -0.01118405192726      -0.81865115695481
H         3.39744971148683      -0.57013415409198       0.88259197412346
Cl        0.72992117482168      -2.04331572292568       2.70624182544751
