43
C13H24F3NO2 optimized with DFTB in AMS.
N         1.98700658218388       0.38520010550962       0.00972370330257
C         2.23363325099800      -0.73488852225763       0.97158766115373
C         3.05687190759322       0.20723861972183      -1.02230007022187
C         0.63568450727335       0.29031964085697      -0.63772962823919
C         3.75165094211319      -0.82889094757671       1.07480534575452
C         4.28953451439488      -0.26305364184270      -0.25038305239931
C         2.15784354583914       1.70307248151900       0.68335785590643
C        -0.52732810296443       0.41172215889733       0.34220147722090
C        -1.85635753803251       0.22407097362480      -0.39496592527658
C        -3.02722859844037       0.38609967920487       0.57996032627557
C        -4.37225700395704       0.20795089800355      -0.13003149485542
C        -5.53730035232870       0.37034186086719       0.84488674136935
H         1.80974397558128      -1.64320087454154       0.53719768352516
H         1.74723228693210      -0.51520620301647       1.92324445419533
H         3.20361955484019       1.14666205084861      -1.55599580673019
H         2.72115180922530      -0.55855659557544      -1.72536668283061
H         0.59850862172777      -0.67543360621034      -1.15089441827604
H         0.59233601221649       1.08501685073356      -1.38834369448097
H         4.05780725877499      -1.86520856361540       1.22411932765753
H         4.11615933950461      -0.24197008830621       1.92002320446717
H         4.97648517558653       0.56570152758047      -0.06930590063508
H         4.82114940722295      -1.02337601019328      -0.82528565663490
H         1.54299546030682       1.71718005005903       1.58434501585100
H         3.20188977479438       1.82760367991981       0.95877482193317
H         1.85558855832250       2.49328365500959      -0.00050095829360
H        -0.43526777618986      -0.33885630314387       1.12937722806588
H        -0.51755394585803       1.39284504590336       0.81789030912764
H        -1.88916381246367      -0.77115576777505      -0.85285168218349
H        -1.93927520352875       0.96520835670096      -1.19797785282690
H        -2.98173252767022       1.38012965801131       1.03576615134229
H        -2.93460933642020      -0.35282715705621       1.38216378156987
H        -4.46231966611028       0.94858490624858      -0.93239348610698
H        -4.41514847507964      -0.78679180986147      -0.58757247121361
H        -5.52135126307400       1.36322920182120       1.29578597588271
H        -6.48481572903584       0.24094354999111       0.32119565789688
H        -5.47503066470451      -0.37271721761515       1.64082975528915
C        -0.08812279777947       1.37625517002576       3.80156759615501
O         0.59331820504475       0.67170456558318       3.03762442217298
O        -0.81844255896905       1.13337847516483       4.73203754555606
C         0.05215095622895       2.95327130812920       3.38979620714606
F        -0.49303338720258       3.15981634182556       2.15547002945012
F         1.35579002796675       3.31087478711154       3.25794459410446
F        -0.51423508016280       3.83480448681463       4.21292254673325
