27
C7H11F3N2O3S optimized with DFTB in AMS.
N         0.12658815835352      -0.12188498899417      -0.22480504866961
N         2.20164118021759       0.16184381107042      -0.71852367973141
C        -1.17125549394144      -0.77496940032442      -0.08667636825247
C         1.13302301308617      -0.59077996903144      -0.95877296878906
C         0.57697199044926       0.92555628422707       0.53727188521199
C         1.88594222451336       1.10494606656746       0.22360324160023
C        -1.14562632713393      -1.71277328974668       1.11662059294965
C         3.53881338491451      -0.12084395355203      -1.21502050590392
H        -1.93340944631912       0.00098172338627       0.02866080082345
H        -1.36220500089155      -1.33154127918813      -1.00777482004315
H         1.09136257946353      -1.41768321034286      -1.64826254000388
H        -0.06392609734480       1.45279455653069       1.22190432986059
H         2.60739312364645       1.81609267811351       0.58579882571495
H        -0.32734720408436      -2.42509684880309       1.01634514342886
H        -2.08957809692293      -2.25288455953079       1.16912030386803
H        -1.00630532202915      -1.14570970720401       2.03627538706669
H         3.45940882877600      -0.74327411861220      -2.10348721667419
H         4.04564352147780       0.81526623450022      -1.44497001117069
H         4.08433512819732      -0.66703521783274      -0.44421999013412
S         2.36151955265908      -3.45978156309955      -0.39028727497812
O         1.88466799357110      -2.42428256914638       0.53010670613529
O         2.64682383216504      -2.93527322004409      -1.72238010614956
O         1.61767252304462      -4.69064923285623      -0.35352782399321
C         4.04442966938181      -3.85115516177529       0.27799048367077
F         3.98621655208243      -4.27142553643378       1.53375838628382
F         4.78773896629906      -2.73413996401150       0.25244626938154
F         4.66448009626861      -4.76882534736627      -0.44814489190247
