36
C8H20F6NP optimized with ForceField in AMS.
N        -0.00461180991789      -0.00423261338693       0.00234936835085
C        -0.85167655075003      -0.26336323694848       1.21885619495583
C        -0.85259802409207       0.25767436697954      -1.21358437877533
C         0.84266269857948      -1.22058410818256      -0.25948029380884
C         0.84342193187348       1.21101992586921       0.26303528473176
C        -1.91023701500386      -1.37474370542482       1.07680608209467
C        -1.90685395181085       1.37341351707214      -1.07142136406691
C         1.89796841297493      -1.07788606893488      -1.37412846030969
C         1.90793744008883       1.06772070892742       1.36889964302236
H        -0.21410118875195      -0.56062633384459       2.07924439245663
H        -1.37193241955103       0.66443853850022       1.54491332283620
H        -0.21562157364709       0.55435372249286      -2.07467497573715
H        -1.37535002403436      -0.66852794969854      -1.53988319175518
H         1.36557444226855      -1.54657446003044       0.66684501832629
H         0.20553305834140      -2.08123462119317      -0.55629480386959
H         1.35668635561007       1.53713056667356      -0.66551786840373
H         0.20835050564889       2.07157864557962       0.56475507517582
H        -2.47042825888421      -1.45481051150404       2.03233410054112
H        -2.65010001191401      -1.15145722061454       0.28394522507288
H        -1.44517619782949      -2.36277970866269       0.89132869525850
H        -2.46757218107225       1.45504747182078      -2.02658657279460
H        -2.64679845972856       1.15422395006142      -0.27756633911095
H        -1.43771102344925       2.36000921775517      -0.88793003665552
H         2.46078111196887      -2.03175737313468      -1.45584181980199
H         1.43199297077623      -0.89193642096614      -2.36160223420720
H         2.63470885995479      -0.28397169107524      -1.15144568006371
H         2.46924655465854       2.02304657018554       1.44590783925523
H         1.44719975261602       0.88260667212954       2.35911394834380
H         2.64717839677999       0.27512256063474       1.14288547785838
P         4.61501766551279       2.21813192544956      -2.75901987867143
F         3.70293988130332       1.13306187323575      -3.72997536395284
F         4.36214772072226       3.48325257198962      -3.89283755683816
F         3.17910340303668       2.69524135062773      -1.94997488234642
F         5.49687281132045       3.29295508784130      -1.75064695858751
F         4.88701669435720       0.96528179665350      -1.61606993344099
F         6.05924237124412       1.80284617272254      -3.59078999458259
