32
C8H18BF4N optimized with DFTB in AMS.
N         0.49405004326812       0.22868623704626       0.10069261494830
C         1.55990970154728      -0.43904649627947      -0.72953261528347
C         1.16314462022067       1.43538907142860       0.72231747494525
C         2.47302333576322       0.68344389681050      -1.18755247744545
C         2.50599870102031       1.62205931975815       0.01592071291488
C         0.01491650906850      -0.69253836913634       1.18678159903866
C        -0.61401647158821       0.66248118154362      -0.81232620733999
C        -0.52686950284918      -2.01588318625971       0.67300375934211
C        -1.82966994832302       1.24745738191639      -0.10588508935240
H         1.09514780080511      -0.99145304292398      -1.54607412918075
H         2.10588446307271      -1.12493708392362      -0.08043220268715
H         1.30888507193025       1.23554955037223       1.78365420059607
H         0.50964960916419       2.30055474625850       0.60659274548905
H         2.08000601139385       1.18431688490366      -2.07716033220712
H         3.46584423666100       0.28864264176061      -1.40553313706285
H         3.31088622027885       1.32248321238140       0.69043653521756
H         2.65474406934354       2.66155805526235      -0.28060148375922
H         0.87755905387031      -0.88509039350812       1.82851690965434
H        -0.74065202398409      -0.15414290411311       1.76245173222390
H        -0.18480680209115       1.40170553879711      -1.49327507536887
H        -0.91877116543924      -0.20755577029265      -1.39851327946757
H        -0.89858506387704      -2.57437713286420       1.53162430651299
H        -1.34443091389154      -1.88586754093083      -0.03532790358824
H         0.26669606597131      -2.59935440364503       0.20940634865244
H        -2.48036880343832       1.68126204862084      -0.86499306998865
H        -2.39057319190131       0.47909061533470       0.42333298099430
H        -1.55525675568993       2.03170631176517       0.59747876876677
B         3.45455083064503      -1.28704482663734       1.90856694026041
F         4.33696791966126      -1.79299407036037       2.81328551310526
F         2.72049011395629      -0.19035755356363       2.45654821558273
F         2.48718333427028      -2.25369698325072       1.51621451921343
F         4.08564515126096      -0.81656010527097       0.74012034127328
