35
C11H21ClN2 optimized with ADF in AMS.
N        -1.24685867695049       1.30419085334973      -0.19494170121590
N        -2.56322217773882      -0.35595971510841       0.27898255234830
C         1.15549793065123       1.86225023064739      -0.30156846931619
C         1.61244049321076       0.41354771654103      -0.43379718105441
C        -0.23541607741253       2.14655721319642      -0.85655501728640
C         3.01230581878906       0.18358695260510       0.13687955263611
C         3.48470634023491      -1.26381504037737       0.01206596320241
C        -1.74848412973093       0.15492266767301      -0.66085308257566
C        -1.73742831411259       1.55044395555833       1.07422977364948
C        -2.57099403303257       0.50527245465842       1.36294574492923
C        -3.41192046348461      -1.53712470577493       0.11548126684643
C         4.88477992130541      -1.48465174898662       0.58131621905703
C        -4.77759913059889      -1.17145799996199      -0.44658530345929
H         1.84998794551832       2.53647980674098      -0.83235019676204
H         1.15488313564547       2.20143962740800       0.75016563484445
H         1.59978558117803       0.10703991172728      -1.49907528693500
H         0.90468294585905      -0.25172795450514       0.09651242120570
H        -0.50554064583240       3.19143134152999      -0.60420141960014
H        -0.31027905981830       1.95097216821029      -1.93837708281522
H         3.02023733859995       0.48432093738192       1.20081617791865
H         3.73030314080910       0.84869290098805      -0.37764685013972
H         3.46842372815973      -1.56029827367914      -1.05328414939569
H         2.76636823004423      -1.92554692980728       0.53047135392713
H        -1.52832654879322      -0.30136804621637      -1.61701964508852
H        -1.41591212662581       2.51458573836814       1.57029497034736
H        -3.16518507070536       0.29832617188251       2.24509889270350
H        -2.87931702315937      -2.24156782427172      -0.54066736782169
H        -3.49501701963811      -2.01063075898840       1.10540528403662
H         4.92099864249448      -1.22594119485946       1.65182335996903
H         5.62493041259268      -0.85459259579407       0.06268573802937
H         5.20214573145735      -2.53332738769036       0.47645192635756
H        -5.29483265791608      -0.46048772644420       0.21343911312966
H        -5.39760616782749      -2.07475165003747      -0.54219902314510
H        -4.67852420626645      -0.70911510163890      -1.43958007783879
Cl       -0.53378833960575       4.31882736737526       1.58823622451174
