62
C18H36F3NO3S optimized with ADF in AMS.
N        -0.51968380205067       1.92985730729759      -0.36895267477252
C        -1.31505617557916       2.52997117663159      -1.53087080853302
C        -0.25421843677763       3.01026254541070       0.65877628681926
C        -1.29248698083255       0.77400343220462       0.27940444681175
C         0.80049437357026       1.45567907527895      -0.93778709815062
C        -2.57034184313377       3.25933334913757      -1.08863128053509
C        -1.51919283696283       3.70583052744949       1.13396165958062
C        -2.27182483067437       4.32696014050950      -0.04122418319513
C        -1.20992346956813      -0.55162599230477      -0.45265469349892
C         1.78001927235044       0.88263265763908       0.07512139452729
C        -2.17825384713504      -1.55276854615096       0.18397862825870
C         2.91673003977460       0.15210337115478      -0.64493032946166
C        -2.27956263093562      -2.83282382404449      -0.64164667929908
C         3.96127808791986      -0.40312543596855       0.32028537745252
C        -3.31880395150882      -3.80702988847106      -0.09391728780207
C         5.09419513994037      -1.15056990557878      -0.38076833366726
C        -3.47151815461084      -5.05170616068980      -0.96398645341902
C         6.12311208338237      -1.70692853139371       0.59981522569541
H        -0.61467270408231       3.22585696750577      -2.02212681584816
H        -1.54050004205911       1.70417619740510      -2.22454869577758
H         0.28979556697285       2.53835205816759       1.48845927396399
H         0.41648118723521       3.73476443396651       0.16622145053698
H        -0.91918039117176       0.69594385100022       1.31241580824188
H        -2.34232441843433       1.09040430725716       0.30481760433861
H         0.54615060749561       0.71567420763728      -1.70948994499555
H         1.24036152681875       2.32795798163383      -1.44614877283087
H        -3.01824195154884       3.68572057972839      -2.00180816501634
H        -3.32149501542472       2.53745668474374      -0.72866793187662
H        -2.16662719564244       2.99521798417563       1.67520522909328
H        -1.21303458701390       4.47228640433137       1.86689708750146
H        -3.20692848276081       4.79389650035905       0.30700268668432
H        -1.65261778558175       5.13142007608912      -0.48212820367657
H        -1.51380669470695      -0.41863083868787      -1.50452756604998
H        -0.18793369994882      -0.96701053399235      -0.42804461769633
H         1.27332272792617       0.17483585929454       0.75117706870665
H         2.20548525889001       1.68512306473398       0.70093651847835
H        -3.17766433061510      -1.08788438393103       0.22048307390599
H        -1.87093348679529      -1.78847473164941       1.22139359123194
H         3.40529514638281       0.83828939580682      -1.36149337021039
H         2.49250023063471      -0.67416230947366      -1.24386903941640
H        -2.55510100073903      -2.55362023665529      -1.67413521031330
H        -1.29267441497082      -3.33260974627704      -0.69561308605637
H         4.38727541604454       0.42460930701713       0.91801953898900
H         3.46749955160002      -1.08419024342059       1.03883319997197
H        -3.04720704518763      -4.09978217836954       0.93760736729750
H        -4.28955804421923      -3.28359314711253      -0.02845128594047
H         4.66904415801059      -1.97508701313862      -0.98112466824952
H         5.59133431799626      -0.47074631137150      -1.09628128514191
H        -4.22698339200544      -5.73890974518514      -0.55230589834917
H        -2.51941774722169      -5.60125569108472      -1.04105463015257
H        -3.78355622339822      -4.77425891942827      -1.98335072151435
H         6.58326603181542      -0.89911757637304       1.19083257122116
H         5.65416886437967      -2.41188057532707       1.30443672055389
H         6.92878141852615      -2.24167095091211       0.07380595960626
S        -3.86779531948523       0.52104541647257      -2.90050821668447
O        -4.27512253174914       1.78269880628058      -3.53043752935891
O        -4.10744254757531       0.43184379594468      -1.44186326390732
O        -2.54180848256284       0.00728176797385      -3.32371353802640
C        -5.06021291255124      -0.75065580631719      -3.59641959728298
F        -4.96749471768746      -0.82368447200907      -4.94903027046265
F        -6.34277169312153      -0.43381112561760      -3.27847634631028
F        -4.80435460023626      -1.99406599930300      -3.09465027768893
