40
C12H26ClN optimized with DFTB in AMS.
N         1.02377666240456      -0.14367602714004       0.11893958582410
C         2.06419515267806       0.25981549369176      -0.88588335736462
C         1.80681153101887      -0.92156093939327       1.13077693810045
C         0.40634894681894       1.05912009697585       0.76681553643570
C         0.00594528803266      -1.02380469026682      -0.55562583116196
C         2.98952315410694      -0.94439099584054      -1.00165679972221
C         2.84507241731113      -1.70377758599598       0.32787010501615
C        -0.38649801168595       1.94532537354927      -0.19149727508546
C        -1.18395532508663      -1.41423707882535       0.31383868636815
C        -0.91404534788023       3.17196860230294       0.55897636913851
C        -2.07508179657704      -2.38042410749944      -0.47800676774992
C        -1.70404646841966       4.07859401226402      -0.38275265714826
C        -3.30862571783498      -2.77905218293896       0.32814912449172
H         2.59372398262382       1.12604469711474      -0.48254650317801
H         1.56898488917344       0.52534508858799      -1.82802761850332
H         1.13679736479421      -1.55503836082089       1.71128568269355
H         2.29029992119801      -0.20558388522646       1.79953503809996
H        -0.22950476885530       0.69923787003082       1.58000181909371
H         1.22856565251879       1.63175529908761       1.20658043543701
H        -0.33378719648890      -0.48380357403479      -1.44837715673282
H         0.53675764480816      -1.92040057472478      -0.88161976700009
H         2.69728965002895      -1.57726033202613      -1.84169416173581
H         4.01693120313626      -0.61610899980869      -1.16635786138496
H         3.78864070649060      -1.74099626452876       0.87529908442241
H         2.51234338156833      -2.72949401458798       0.15736366006928
H         0.24817193235858       2.26600898145281      -1.01942102565945
H        -1.22548336618178       1.39327496213806      -0.61810054727221
H        -0.85850873473482      -1.89649636910342       1.24164497722583
H        -1.77167086795355      -0.53188136992361       0.57975165135918
H        -0.07403841304595       3.72997929699314       0.98769660588773
H        -1.55778004193680       2.84900697993407       1.38506548150381
H        -2.38604691880288      -1.89920731024782      -1.40999044498958
H        -1.50072732343270      -3.27591939675544      -0.73701181345979
H        -2.55810608286045       3.54314588404270      -0.79796459714442
H        -1.07245554803205       4.41411288699067      -1.20538218833280
H        -2.06790682383087       4.95202865119335       0.15848452718397
H        -3.90711665239473      -1.90016749618967       0.57098844157129
H        -3.01817285790095      -3.26995061998324       1.25831501647324
H        -3.92274421262410      -3.46790566687005      -0.25145543399598
Cl       -0.08142254010997       0.77552908958233      -3.21402852767407
