53
C17H32N2O2 optimized with DFTB in AMS.
N         3.09420516032692       0.95135049087881       0.85288776302397
N         2.88747319587494      -1.18642109016025       0.71491503807182
C         1.63596589686768       2.90421192366925       0.70406005875215
C         2.90982721960904       2.32003984726492       1.31955529998325
C         0.91360069609503      -2.61661893640645       0.95022313717878
C         2.44413687156281      -2.54416366995162       0.99379649987914
C         0.37551725131274       2.13431418596168       1.10153077195534
C         0.35299546191952      -2.16128648172441      -0.40073706389174
C        -0.85931957629396       2.68002262435236       0.37789797274644
C        -1.17836096317634      -2.16472836511589      -0.39465875190537
C         2.66143671551580      -0.12824817045118       1.50121719191940
C         3.59534948723484       0.60491714106623      -0.37418976726880
C         3.46084174183106      -0.74784691137355      -0.45503629014911
C        -2.12081106111856       1.90849082149042       0.77717857134859
C        -1.73607646022352      -1.62308170176526      -1.71466292251756
C        -3.34497847905067       2.39838387199370       0.00563741405912
C        -3.26277573489907      -1.57881456222806      -1.69774448730131
H         1.55914053947367       3.94390420465346       1.03198098941678
H         1.75551133400764       2.90813880709262      -0.38220574222267
H         0.50429370643319      -1.98838477820754       1.74763492319154
H         0.61666443350441      -3.65033660714574       1.14927140390848
H         3.76652225615164       2.90563090429527       0.97659529037607
H         2.86398157744264       2.31022322811734       2.41224226078543
H         2.80984191431795      -2.83808968140341       1.98231327006878
H         2.88676932409546      -3.20042410516182       0.24050414814270
H         0.22707934291878       2.19908733288511       2.18596154416773
H         0.49413354370285       1.07430537178681       0.84625724098414
H         0.72282200971553      -2.82168578670267      -1.19198181247796
H         0.70866235305192      -1.14883097313830      -0.61734593229984
H        -0.98690436347123       3.74050074934861       0.61830483171085
H        -0.70792739407842       2.59841394829530      -0.70357302108456
H        -1.53702772921675      -1.54343946638803       0.43360236632880
H        -1.54309398045096      -3.18416569374343      -0.22958562023681
H         2.23523982578364      -0.15310387968479       2.48920494762656
H         4.05824684325564       1.35762890655079      -1.15233771951591
H         3.72685433346156      -1.43380165971331      -1.23964811863246
H        -1.97188821075969       0.84083805033570       0.57914801553651
H        -2.29562980488878       2.02502682879407       1.85234985950915
H        -1.39791191822253      -2.25784087777400      -2.54036821202946
H        -1.34517753103400      -0.61449951618290      -1.88593311709896
H        -3.52672746564336       3.45462949434685       0.20812666216667
H        -3.19500174121311       2.27190839835484      -1.06745626476150
H        -4.22724768179176       1.83049114693134       0.30238095420667
H        -3.63502296390684      -1.18839150177950      -2.64489623082965
H        -3.61733063143521      -0.93343892751492      -0.89287418723278
H        -3.67356689823431      -2.57815265471580      -1.54749097572847
C         5.01467810505607       4.40363031420934      -2.97852968045220
C         4.46157685388000       3.38992008190055      -1.95606881633816
O         4.67999475970337       2.17642415597044      -2.22133033233030
O         3.85040128515335       3.82687715165275      -0.97094731956007
H         6.06897808470043       4.19807416270211      -3.15789129453269
H         4.47432372945309       4.28518429838204      -3.91706205884414
H         4.88975839869584       5.41953664445007      -2.60956100270235
