78
C22H36F18NP optimized with DFTB in AMS.
N        -1.06916116605248       0.02254870481194       0.79732076398892
C        -0.53253999180515      -1.14897035299934       1.57958480659518
C        -2.39643015486847       0.42213095434331       1.39434859406072
C        -1.21148620051202      -0.38660789671596      -0.64358834005724
C        -0.13541113184987       1.20296503047812       0.86364918717444
C        -0.16026016442500      -0.86073528416433       3.03328445979947
C        -3.10746161765469       1.57831742444676       0.69635016057045
C        -2.29822207575142      -1.42087825217145      -0.93053605479047
C         1.29849784681762       0.94216660420488       0.41366813729397
C         0.42548757902765      -2.13483452528222       3.65547291183904
C        -4.52610654856950       1.70434973627190       1.26886462543760
C        -2.24487235992815      -1.80909322170355      -2.41415739055708
C         2.10698290957132       2.23393969997325       0.60411078299103
C         0.83567429978086      -1.89620680378053       5.10683591027247
C        -5.20492725724193       2.97462552840464       0.76370432487888
C        -3.33169430884377      -2.82657506316814      -2.75355560540234
C         3.55918422900829       2.04312336164450       0.17528379659472
H         0.34240039646738      -1.52014988212754       1.03965662288062
H        -1.30221237449606      -1.92396229654182       1.55208653191497
H        -2.20190364326970       0.70172465734088       2.42878915817695
H        -3.02591566038467      -0.47077245100739       1.39479645641809
H        -0.24288427167697      -0.78426366303447      -0.95554993011977
H        -1.40769936598167       0.52098179070883      -1.21893232360500
H        -0.13728412771468       1.55062401680822       1.89496622994858
H        -0.57325187251657       1.98489363755665       0.24136679669142
H        -1.03761404820507      -0.55060092189828       3.60368275023744
H         0.57935114382193      -0.06070642294020       3.09550273078789
H        -3.16565102002454       1.42024092711440      -0.38411572253496
H        -2.56888593090908       2.51037355758941       0.87926596721365
H        -3.28648090499159      -1.01273284165555      -0.70656432979260
H        -2.15278510499828      -2.31586919507114      -0.32028307534055
H         1.33210026001651       0.64531949365881      -0.63883445526633
H         1.75576242175774       0.14581655080909       1.00644312978498
H         1.29847577275672      -2.45377791340060       3.07493516072477
H        -0.31821938140114      -2.93782110178413       3.61054053256128
H        -4.47186532118676       1.73524737733985       2.36005230040461
H        -5.11403120414135       0.82525155558649       0.98261256241163
H        -1.26142906791694      -2.23169001568092      -2.64492462715621
H        -2.37788993075440      -0.91246409332896      -3.02818973780393
H         2.07077525680468       2.52887002231265       1.65659048864400
H         1.65154010199594       3.03644063387701       0.01565365508008
H        -0.02950000855550      -1.61404224054232       5.70550061480010
H         1.57544119722711      -1.09768745342725       5.16746766169889
H         1.26763429701237      -2.80609299375567       5.52312665478516
H        -5.25622256089359       2.97897619548416      -0.32628714334911
H        -4.64913890282319       3.85287347545480       1.09245241237118
H        -6.21755619590595       3.03490489882227       1.16169915641184
H        -4.31972258709213      -2.41243660374108      -2.55015774478288
H        -3.20525325273801      -3.73340346504593      -2.16114047908222
H        -3.27495482812914      -3.08958180383196      -3.80942699995624
H         3.61668663216540       1.76593703236988      -0.87840166035701
H         4.03388133410368       1.25990650995838       0.76784432932369
H         4.11043341244149       2.97154406611339       0.32138162277485
P        -1.69961041766791       3.35687026207791       4.38642372373618
F        -0.98535235588006       1.94494320093341       3.71054542897433
F        -2.86520665245512       3.36337303422408       3.16100581831187
F        -0.55158564985821       3.34376836817665       5.60572157921893
C        -2.81408806963436       2.02735020387758       5.31269086414170
C        -0.40483671567460       4.21596219550278       3.12712311415369
C        -2.44473984720628       5.04836435960833       5.12940024828830
C        -2.18507755847979       1.15521856705514       6.43075123490775
C        -0.07170895121915       5.71955624999288       2.90791141057017
C        -3.21799263300908       5.18458083660145       6.47330988340789
F        -3.24707578120110       1.13245729658980       4.38686912013133
F        -3.91666596651573       2.60154431561541       5.81925995264235
F        -0.78201341243197       3.78830821993184       1.89119096237936
F         0.79226352040706       3.63990605135905       3.36457335144729
F        -3.20641409166810       5.64098101705025       4.19289351210419
F        -1.34097231191565       5.81276782551311       5.28277049497409
F        -3.07222007227359       0.25102104093967       6.85657651209409
F        -1.79001596966140       1.86372940735623       7.47651640216126
F        -1.13178954402313       0.48092580376915       5.95679184551959
F         0.64727958113057       5.81930874794817       1.77900281739846
F        -1.15601052103674       6.46796814494497       2.75163553166250
F         0.66915832444741       6.21740763760945       3.88799032443462
F        -4.52113223604883       4.98867253797967       6.30515593521660
F        -3.05545372945289       6.41006017713202       6.97026001869471
F        -2.76735116943860       4.31807300722724       7.37854401423935
