43
C11H24F6NP optimized with DFTB in AMS.
N         0.43658455448644       0.64050959057405      -0.33508919862501
C        -0.05265219807830       1.68661611296584       0.63152500653097
C        -0.74941207406541      -0.05750521973950      -0.92968681934546
C         1.35088351585899      -0.31449588296527       0.38007197890981
C         1.15391429813806       1.32714845097698      -1.47001962735427
C        -0.97496519828584       1.12680617255334       1.70575753971595
C        -1.65624581735010      -0.68417374425782       0.12287020573313
C        -2.15853443365482       0.37876508084848       1.09868472992580
C         1.92964029365928      -1.44449493553504      -0.46535251941290
C         2.40124591271456       2.11956637096128      -1.07775119782594
C         2.91567278948831      -2.22739167723259       0.40422498697786
C         3.06775028031810       2.66166670811185      -2.34115832140151
H         0.81996104914337       2.13743085053921       1.10365920284863
H        -0.57587488441649       2.44195488475490       0.03808601387394
H        -1.30793253197964       0.69250000957030      -1.49750037337104
H        -0.37963159026282      -0.81391943581343      -1.62466853359674
H         2.16446853883316       0.28361070929003       0.78302848159072
H         0.79823119316753      -0.73219216468844       1.22092001933655
H         1.41278397637903       0.55287818399890      -2.19672076262898
H         0.42570177533045       1.99747772677150      -1.93582079516302
H        -0.41601508280905       0.47674998549402       2.38179404184568
H        -1.33348597266725       1.97615430735158       2.29269297204308
H        -2.50038760930354      -1.14051779798977      -0.40132361368507
H        -1.13082132617538      -1.47705082699652       0.66071861408298
H        -2.74288429535211      -0.09578840346692       1.89017842241675
H        -2.81024489357192       1.08105521919572       0.56792384602342
H         1.14259479707656      -2.11605327405048      -0.82154557190878
H         2.46057246440590      -1.04821513107046      -1.33490455809605
H         2.13056734822177       2.95351188251049      -0.42831879356026
H         3.11331693511455       1.49299095342408      -0.53799062706973
H         3.37883034763227      -3.01905660573791      -0.18329164902761
H         2.40085861318105      -2.67599957649332       1.25414713212184
H         3.69360530929905      -1.56365480094960       0.78120367954174
H         3.95035423346158       3.23630862558470      -2.06342643807643
H         2.38550170591157       3.31356835524990      -2.88837603298745
H         3.37484528452834       1.84595146341571      -2.99692013097575
P         3.22713897596238       1.78106782632291       2.97674330854813
F         3.79934063015014       0.72358944651327       4.07156737394714
F         1.79038119875191       0.89851614695937       2.88518523167222
F         2.56412332356577       2.71347776391292       4.13518771324527
F         2.59609714300960       2.80230276228529       1.79959060823551
F         4.60508726360079       2.64134909914688       2.99029028340162
F         3.83014689508210       0.82645378160358       1.73588767504321
