46
C14H12F18NP optimized with ADF in AMS.
N        -0.34316817612188      -0.78129798287806       0.80148775177570
C         0.78785029717999      -0.01788710712501       0.21155013087147
C         2.11888777285620      -0.40448295934209       0.83389859026234
C         3.25435881435031       0.39676354760793       0.20844549127770
C        -0.96948608787558      -0.30363027348749       1.89898034170371
C        -0.70052411443280      -1.96541267380710       0.26010745056436
C        -2.03421787552618      -0.98523084629605       2.45157535584932
C        -1.75774319772369      -2.68409667657842       0.77991292274465
C        -2.44630475795827      -2.18456053125403       1.88022778536038
H         0.77186369389883      -0.21446347741288      -0.87175059323741
H         0.56169490270017       1.04936107692018       0.35976131446410
H         2.28239143818643      -1.48515009105131       0.70472573518551
H         2.07441843617536      -0.24204053689360       1.92185286375290
H         3.33251097765860       0.21033969325432      -0.87445822188331
H         4.20899871080710       0.10859481499014       0.67026220596727
H         3.11741857474631       1.47924931018187       0.36048590327111
H        -0.58053461174148       0.62556943779801       2.30977290103088
H        -0.10430912883090      -2.30984101134978      -0.58166277428227
H        -2.51129016116729      -0.58513004465224       3.34465101822109
H        -2.01243305111030      -3.64523060907664       0.33522385529970
H        -3.27533303072784      -2.74524693915130       2.31358777613654
P         1.41424588938457      -3.53494215852436       3.78515217501219
F         2.34897128584469      -2.41578191790666       2.95537689488681
F        -0.00656705481597      -3.06305262012356       3.00993695851076
F         2.78083303836237      -4.05321413622793       4.55729023391378
C         1.75181366406717      -4.65853820687210       2.18613288127624
C         1.10428309299224      -1.95344178251127       5.04108313619702
C         0.39468900706913      -4.81220422631049       4.95707927859318
C         3.18525708800760      -5.21547106809062       1.93283177314137
C        -0.11121931935526      -1.70717093348217       6.00134214433209
C         0.30037943879997      -6.36395010294249       4.80331689927057
F         1.48133462149041      -3.89709482650116       1.04280782548998
F         0.90196844731986      -5.73523919791976       2.09671860945287
F         0.99800826028383      -0.82260731965293       4.21300125797982
F         2.21992193804912      -1.76457556694667       5.81471103815452
F        -0.92547982581452      -4.40786252812356       5.05063768317950
F         0.96160111708958      -4.65036015434253       6.20366910932113
F         3.20905272428072      -5.84222276143963       0.71639495059080
F         3.55024662687364      -6.11924018724360       2.86428207255930
F         4.10801533437958      -4.22750249075255       1.89768591141030
F        -0.02068945959373      -0.43614699263114       6.50154799834657
F        -1.29672958487341      -1.77733648674087       5.33037122814941
F        -0.16288184628735      -2.53848834577592       7.05380537652975
F        -0.60640728999980      -6.73223868073320       3.86480790965658
F        -0.12530874575695      -6.89569267136547       5.98404631083075
F         1.49844027795942      -6.91267274573578       4.51131622517897
