29
C7H13F6N2P optimized with DFTB in AMS.
N         1.74729159358829       0.55903057089952       0.12147280476842
N        -0.29619142921235       0.99508427032982      -0.38858260927899
C         0.73584277183129       0.20414192317313      -0.66480689594388
C         3.07321295802680      -0.04725816655439       0.08455849669336
C        -1.54053266073045       1.03684951257231      -1.15773038986426
C         1.35436631052449       1.59836419184950       0.92090943733547
C         0.06472678933181       1.87632805498372       0.59329850374047
C         3.17801040654039      -1.14977031453646       1.13192778528477
C        -2.16808294172630      -0.34536723201862      -1.26153501960582
H         0.76639578189623      -0.55983150410647      -1.42118268478992
H         3.22026886257693      -0.44617069286442      -0.92177130389725
H         3.80850282566652       0.73898731777725       0.27242753630223
H        -2.21116873041876       1.73909004800751      -0.65703151847602
H        -1.28788586304635       1.41897943785670      -2.15186238001091
H         2.01592842991696       2.05536439762101       1.63566512044679
H        -0.61235565577111       2.62292611653072       0.96988676172527
H         3.00669234219574      -0.74748352643127       2.13021727344907
H         4.17443207532223      -1.58663480012826       1.09247988903493
H         2.44242696137656      -1.92945861985567       0.93583154122478
H        -1.53575729573444      -1.00489864140560      -1.85351339470405
H        -3.13328194774722      -0.25525123249479      -1.75769846615347
H        -2.31556869619749      -0.77928900394665      -0.27263936491429
P         1.32222498832610       0.82235092700325      -3.94223819998220
F         0.24423459314036       1.50593062948176      -4.95378531935703
F         0.87056333544982       1.89610777877273      -2.73730708938811
F         0.11879471132799      -0.21749377070384      -3.37724010775337
F         2.37554213215078       0.11327523520093      -2.83308296453458
F         1.75139517795966      -0.28489150875374      -5.05131576233966
F         2.50168172273549       1.83905180224029      -4.41053285071175
