37
C11H20F3NO2 optimized with ForceField in AMS.
N         0.26036901555521      -0.09561537401646      -0.14163337267478
C        -0.59484705832648       0.70900887940489      -1.07409346889455
C        -0.50027588705594      -1.31842272959549       0.27834929783642
C        -1.97389683190698       1.07745752465007      -0.50145431988337
C        -1.89213726822985      -1.01940285735675       0.87095650601070
C         0.65784267257005       0.69302031414869       1.07666159042128
C         1.46263660910511      -0.52896561859318      -0.93170275925347
C        -2.73137410603627      -0.17928150370941      -0.08626341098060
C         1.52708176427736       1.93623971880299       0.81350133489777
C         2.53352089635124      -1.31549545081774      -0.15311052969407
H        -0.77963229585376       0.13600869556322      -2.01329188370679
H        -0.08194098933191       1.63845999619713      -1.39813095327009
H         0.06206326307104      -1.89364311663735       1.04509327662454
H        -0.64932505226590      -2.00192324326275      -0.58960934131334
H        -2.55993766829661       1.60546780019521      -1.28462163330041
H        -1.87982268179115       1.77634094769217       0.35493270368355
H        -1.80502821924576      -0.50825243727940       1.85218687448648
H        -2.41805805595599      -1.98068151726554       1.05758122645737
H        -0.22975321400611       1.04461364221036       1.63693861523391
H         1.20037711144266       0.04469315644507       1.79843468425018
H         1.14690731899601      -1.17435120023489      -1.78011551201483
H         1.95926694878710       0.34466941028877      -1.40844631000349
H        -3.68516126371529       0.10674611729038       0.40714111460903
H        -2.97796998794766      -0.78089227057112      -0.98910808401433
H         1.77803242476914       2.40692570946627       1.78756523480431
H         2.48589938545617       1.67977243060646       0.32196189267333
H         0.98445495775060       2.69636443010479       0.21769430628127
H         3.34387584202861      -1.60286526910236      -0.85610348746035
H         2.99795745665194      -0.70213104069881       0.64428463279812
H         2.12591088050402      -2.25203473875104       0.27563354954579
C         1.35178757265501      -2.48830645715010      -4.55120271559166
O         2.00844427612176      -2.94358503685290      -3.62783695480598
O         0.81827727107949      -1.39663187311173      -4.43242432515375
C         1.20018783898505      -3.25765085439971      -5.82852775350125
F        -0.14152537415676      -3.47793887260369      -6.07894431356248
F         1.84867705091473      -4.47739255785751      -5.74222824561785
F         1.74416950815012      -2.53070506189852      -6.87096613561663
