37
C9H20F6NP optimized with ADF in AMS.
N        -0.35333485270116       0.39208713464136      -0.00194139887510
C        -0.66623424627176      -0.83924777953346      -0.82043987991539
C        -1.24158439012020       0.20599146565466       1.20358896488439
C        -2.17193302886420      -1.08327934678846      -0.63568928053772
C        -2.56775157308600      -0.28009392246048       0.63156556900400
C         1.10975959297380       0.44866415612793       0.41102495864506
C        -0.75773961125287       1.63514932592931      -0.80276377099022
C         2.11031775208154       0.27277015597004      -0.71930662937708
C        -0.95609683229996       2.88325332742085       0.02488795740699
C         3.52639315989740       0.30964808523985      -0.13962401371090
H        -0.06549845196571      -1.65723483698435      -0.39605738299436
H        -0.35043078329256      -0.66675417417025      -1.85675650664214
H        -1.28077237032448       1.13885447241667       1.77706615196521
H        -0.76248089429430      -0.57083802214654       1.81826509411255
H        -2.36238241911038      -2.15980655717340      -0.51735106389147
H        -2.74498216272371      -0.74992731999928      -1.51261351792424
H        -3.21759998994136       0.56958703831935       0.37459381950484
H        -3.10689768541622      -0.89149669268335       1.36948353671092
H         1.23134193398169      -0.35120529153330       1.16057237295246
H         1.26769375150863       1.42542607723064       0.89081367594316
H         0.05298557735320       1.78852273461936      -1.52602879883149
H        -1.67412547654692       1.36022256273192      -1.34520865877788
H         1.94615772357949      -0.68674688557171      -1.24051277714015
H         2.01384758291234       1.09670002724912      -1.44317461735660
H        -1.89537586509929       2.87227355658120       0.59714089391860
H        -0.10038074199812       3.08868294578840       0.68266160188781
H        -0.98123214180796       3.73844370941781      -0.66704587508185
H         3.71543916400792       1.28245959888438       0.33404333167740
H         3.68187964886860      -0.49553581619317       0.59603981501686
H         4.26369688134202       0.18850483485661      -0.94546550848726
P         2.54938248796717       4.34618429727620      -0.64590466173079
F         3.86581589076674       3.41015000168367      -0.98284981356740
F         2.20113578508263       3.32569954044096       0.66137843283785
F         3.43474859457890       5.29552055263426       0.34709109647562
F         1.17841199465571       5.20058478085623      -0.29248625955164
F         2.85212429823403       5.30256124040353      -1.93594917742012
F         1.62061320232534       3.33113208146345      -1.62829909983991
