25
C5H9F2N3O4S2 optimized with DFTB in AMS.
N         2.21467398641984      -0.49634011771643       0.01204451213996
N         0.65140751880538       0.93674937477180       0.37318189436449
C         1.34161389438079       0.31740396611885      -0.58050807051086
C         2.09620139846893      -0.37405791434625       1.36814089922750
C         1.10616972293260       0.52834299230643       1.59681474891472
C         3.27778161577820      -1.21415609890822      -0.67231409324706
C        -0.33520784431688       1.98161408608156       0.15185767162559
H         1.23559302841661       0.47357583667761      -1.64025685278145
H         2.74716856181396      -0.89956983112414       2.04458364197346
H         0.71311750219380       0.92655783254250       2.51531345566977
H         2.86529771133020      -1.76023383315173      -1.51962640725199
H         4.01236266774593      -0.48339722754012      -1.01595203619926
H         3.74753729005657      -1.89808880607141       0.03079439655762
H        -1.32385504952428       1.61769593307986       0.43293068871004
H        -0.06491165654295       2.84373834256284       0.76130288681619
H        -0.31708016897000       2.25967447575253      -0.90010696530188
N         3.75973058330965       1.87463306431113      -0.35416570295516
S         4.63476837224661       1.80233231109238       0.97530050988113
S         2.83279796350237       3.13874028846633      -0.59138405094059
F         3.54667325961959       1.93814830325421       2.18296445041290
F         3.81706702122522       4.31089285525908      -1.07569659904265
O         5.07728046337326       0.44327544100527       1.07872801674917
O         5.55598578294395       2.85980721434033       1.20403873489225
O         2.16144158781592       3.66959359756060       0.55707200176083
O         2.02805746557471       2.83626833367499      -1.74276775666474
