49
C13H21F6N3O4S2 optimized with ForceField in AMS.
N        -1.27977159164633       1.30869636134264      -0.23655683845712
N        -2.67254998570941      -0.38685046322016       0.12310708394439
C         1.11007602934267       1.91807541840121      -0.19566040459343
C         1.58672679114010       0.46982605554729      -0.36821390297362
C        -0.25516895159922       2.14771739216530      -0.85528780671979
C         2.99463264394654       0.27924495249963       0.20275981618869
C         3.45086023140013      -1.17560561083423       0.04849873474067
C        -1.81036953790913       0.17863574318592      -0.74348745255230
C        -1.81838259595196       1.45892501910201       0.99037507753107
C        -2.68563142813725       0.40797216436359       1.21235758112990
C        -3.38586711238692      -1.64931735277750      -0.04973274819616
C         4.85023196669224      -1.37697602869055       0.62065052819958
C        -4.85056026587436      -1.38795561610862      -0.37627334289968
H         1.84859448603921       2.60164778344173      -0.66414345119215
H         1.04846981106711       2.16951399868855       0.88568435873620
H         1.58943607851858       0.20788016280269      -1.44940858553007
H         0.88792808954070      -0.21479102414996       0.15999436345947
H        -0.54273622119518       3.21658994550344      -0.75341306030938
H        -0.18416473869242       1.92411731108836      -1.94273090165190
H         2.99477584844333       0.55413963816176       1.28076243731817
H         3.70371954273346       0.94760300097124      -0.33394016591754
H         3.45745531613640      -1.45436216042857      -1.02801524843017
H         2.74378167471767      -1.84882128549278       0.58097794610259
H        -1.54979215938410      -0.23977810307445      -1.70803766777850
H        -1.58031305631140       2.25839933240569       1.68007510416633
H        -3.26155904892186       0.22325333471661       2.10994059657995
H        -2.92864973346932      -2.23368685091907      -0.87794309707586
H        -3.30738654936049      -2.25462727614036       0.87948126170043
H         4.86238678035865      -1.13034437671539       1.70371993269731
H         5.58070077112656      -0.73089823489245       0.08870072759475
H         5.15442887146493      -2.43723270489934       0.49378127420460
H        -5.33649462081089      -0.83028543185924       0.45192536913727
H        -5.37954430034579      -2.35362257682117      -0.51855106716902
H        -4.92884545370496      -0.79486375186483      -1.31225458432808
N         3.54428183391769       5.80780902159583      -3.60457769720068
S         4.48019913036043       7.09531654548254      -3.99270243834007
S         2.05780120573581       5.96116544963253      -2.93210055699717
C         5.54174882685248       7.48400875380147      -2.61635703608006
C         0.82253000602899       5.76852076198517      -4.19870546124045
O         5.33191792032631       6.74385752062714      -5.17926603726398
O         3.62887101200252       8.29009962189131      -4.32201364530604
O         1.90031082746375       7.30492508632209      -2.27645922456990
O         1.86933951737642       4.88058851014505      -1.90751616478481
F         6.34259461162235       8.56196706786874      -2.94188969365467
F         6.33804604552000       6.39234193338996      -2.32542466339911
F         4.77620292968827       7.79959070260668      -1.50974752460071
F        -0.43455042881274       5.88682534369151      -3.63752861163851
F         0.94933380370170       4.52174955882235      -4.78182634024053
F         0.98909168245873       6.74464716173865      -5.16296682933995
