29
C7H16BF4N optimized with DFTB in AMS.
N         0.67316659254819       0.17929543719574      -0.37667056244289
C         0.02737645330866       1.52816351831048      -0.23508585077865
C        -0.26411092491115      -0.76528907666124      -1.07372725195593
C        -1.30819468957552       1.45862659489951       0.49328007836373
C        -1.60865806549533      -0.88108474975954      -0.36724308305971
C        -2.26189320109363       0.48965831758461      -0.20242267092398
C         1.08467956962420      -0.35686487657774       0.94600721564142
C         1.89503020356508       0.33049693777821      -1.21539429523685
H        -0.11992996808853       1.91360478757741      -1.24714711883897
H         0.73299922934464       2.16994267015937       0.29880764992871
H         0.23577604352408      -1.73569202637515      -1.12803359991255
H        -0.41139752808065      -0.37367853697373      -2.08342654984911
H        -1.73490372427503       2.46452383161323       0.47153715642340
H        -1.16482276199327       1.17690373098805       1.54202530471778
H        -1.49891009626525      -1.37826421865828       0.60250043514835
H        -2.24307733030876      -1.51010931719613      -0.99677813799956
H        -3.17828486697316       0.39177365543285       0.38442994865061
H        -2.52071396177627       0.88461118160294      -1.18758760581114
H         0.21221108482978      -0.49781920132257       1.57802102000847
H         1.58648590182027      -1.31154706940388       0.79693331636174
H         1.76654020665435       0.35049066687662       1.41510250369709
H         1.60064386772530       0.72832861937016      -2.18542775680365
H         2.58033633060885       1.01594289865970      -0.71979100944984
H         2.36314315536678      -0.64484250516022      -1.33590338199761
B        -1.26463363771069       1.56278703297107      -3.51551031412492
F        -1.50348096892908       2.04452880022479      -4.76587573673760
F        -1.92271151349834       0.33890842580293      -3.27499583724406
F        -1.64814446837027       2.47150144250674      -2.50600368736653
F         0.13848270812477       1.31271022613410      -3.31992369230774
