51
C13H24F6N2O4S2 optimized with ADF in AMS.
N         0.42203896459525      -0.55126278581291      -0.52915536411492
C        -0.38977248917355      -1.09381776399571      -1.69967271563051
C         0.66820595400489      -1.68432002357118       0.45901715633033
C         1.76259787746522      -0.09948115452188      -1.09689146930453
C        -0.29349341501511       0.57941909709290       0.17508822537458
C        -1.68663265279372      -1.75011259371949      -1.26657389526176
C        -0.60936424892365      -2.37715656415087       0.90958521739086
C        -1.41479477234976      -2.88858773356051      -0.28384605390593
C         2.67497974139133       0.62358537983011      -0.12240014644864
C        -0.58705865014576       1.78707774432592      -0.69224768417579
C         4.02450398548064       0.92318650259505      -0.78439158237612
C         4.95365628897733       1.69306788415108       0.14955809200236
H         0.27094063236690      -1.81914320715419      -2.19240657664341
H        -0.54090905241541      -0.25922176288969      -2.39624974503959
H         1.21622259276872      -1.25122317785149       1.30687168218827
H         1.31380514255432      -2.39744132859969      -0.07295834113412
H         1.53578272130640       0.52700602687702      -1.97116923452484
H         2.22803058521441      -1.01484107848215      -1.48768900644630
H        -1.22515410863476       0.16073538816619       0.57354740763906
H         0.33955972968544       0.85095236841068       1.03192433963837
H        -2.16217851045716      -2.13837074999388      -2.18238216228085
H        -2.39043037275426      -1.01588861829244      -0.83470865270969
H        -1.22255491869181      -1.71268855874083       1.54331076917375
H        -0.29824528923851      -3.21675835446221       1.55367933432627
H        -2.35876449919489      -3.34272754410631       0.05605881923061
H        -0.83504636471212      -3.67205061214704      -0.79881903701382
H         2.85565805396948       0.01282013857779       0.77873335244568
H         2.22861649749370       1.57668825810479       0.21065016932784
H        -1.05842223240452       2.55332152312938      -0.05850411199590
H         0.32187448382445       2.22723955063217      -1.12490228203241
H        -1.28938045429875       1.55629495859291      -1.50479658233635
H         3.85875797851127       1.50023170573402      -1.71133721671476
H         4.49626328822047      -0.02327756789644      -1.09356532709478
H         5.14739043852825       1.12306679368749       1.07265241035029
H         4.51554770849666       2.66235608898540       0.43763658409210
H         5.92269858608753       1.89148429240196      -0.33160139362694
N         2.57575918588706      -3.78170746738403      -4.34790893660080
S         1.98679341508875      -4.41931994628435      -3.00751403218098
S         2.64204001618183      -2.21166277990769      -4.67681497270270
C         0.24221735184823      -4.93213912843069      -3.52118477730398
C         4.34217180260661      -1.72802939985551      -4.01813852818015
O         2.64744769694977      -5.68243053507162      -2.73259809003006
O         1.73266522042489      -3.49101298565189      -1.89131902041236
O         1.73159339001213      -1.34636875754056      -3.91851149987458
O         2.75857875227806      -2.03724789238723      -6.11341285817251
F        -0.37198312425385      -5.54559570353922      -2.47128494880236
F         0.25543941360778      -5.78318542836739      -4.56319490865044
F        -0.50860674992453      -3.84457574785918      -3.85758484854247
F         5.33374456858679      -2.34051456931021      -4.69211639931163
F         4.46108434133374      -2.04357123563311      -2.69714364612673
F         4.50199890563379      -0.38218857652327      -4.13904900400665
