45
C11H24F2N2O4S2 optimized with ADF in AMS.
N         0.37898079630950       0.14403226308323      -0.00206732495904
C        -0.57077492409579       1.25837500168530       0.38500635038808
C         0.04497741813543      -0.32604397229270      -1.41092314955085
C         0.26494078045528      -0.99576616263391       0.99416253343535
C         1.80337225364777       0.67892137338010      -0.04549152069668
C        -2.03860569101970       0.88399184469406       0.23285114524333
C        -1.40651537035436      -0.73027134943944      -1.57884095390848
C        -2.34955320165638       0.40602024593227      -1.18555387144853
C         1.26562357515569      -2.12445708101393       0.80937607836329
C         2.37307938684077       1.15525989571200       1.27931276289727
C         0.96701443881452      -3.23362044993763       1.81797146227152
C         3.81083370731795       1.63103672349514       1.05761461949677
H        -0.33116075649906       1.54464438529164       1.41774126860228
H        -0.32247402229251       2.10200841751511      -0.27961849311640
H         0.28520564364793       0.52434489095693      -2.06911655582241
H         0.74328186789165      -1.13208384423583      -1.65754142261601
H         0.36758205741902      -0.53839562191219       1.99058980311685
H        -0.75951274601270      -1.38013879192593       0.91149995009412
H         2.41291064817986      -0.12872230245706      -0.46842936746516
H         1.78799758347154       1.49848267743887      -0.78157902887632
H        -2.31902380564875       0.11510113690062       0.97234610906395
H        -2.62717301406483       1.78184210146466       0.48472762897815
H        -1.52782875918231      -1.00808695778799      -2.63826141182465
H        -1.63037575153002      -1.64170345805484      -0.99827935558099
H        -3.40120392961698       0.08919767594016      -1.26104883965442
H        -2.21658627464761       1.24770651941653      -1.88944084098558
H         1.21905609085862      -2.52851910915690      -0.21425273037419
H         2.29803972875993      -1.76886885837477       0.94451381465337
H         1.76877787846095       1.97618760032042       1.70143412661042
H         2.37902547092718       0.33323808185881       2.01398791868440
H         1.69351546259068      -4.05065690246997       1.70774363914484
H        -0.03988242723329      -3.65459316481355       1.66776802780196
H         1.03221040243114      -2.86380963880903       2.85395571168664
H         4.24500500207744       1.99542873613947       1.99969472676818
H         3.84738543263805       2.45041530388956       0.32340735248467
H         4.43194706285474       0.80755267472674       0.67752902996307
N         2.95046583911416      -1.74090809822047      -2.25281556652179
S         4.46428272960063      -1.46090969384110      -1.78669571575404
S         2.53758115706806      -1.67311788026425      -3.81401799101583
F         4.62233262767639       0.18246826190216      -2.02890905125256
F         3.21102636213313      -3.02793589099267      -4.45002654051583
O         4.47085526259939      -1.57281330436943      -0.33342697525407
O         5.51541654385528      -2.04460288727102      -2.58910890810516
O         3.11008433618678      -0.58176885435053      -4.57536995975779
O         1.10343438023487      -1.92539916321864      -3.85517847109176
