26
C8H11F3N2O2 optimized with ADF in AMS.
N        -1.25286328180393       0.40318777964000      -1.18207121411417
N         0.48495508883370       1.02604546068425      -0.03519825847582
C        -2.63446696102451      -0.00595120139640      -1.48768850342267
C        -0.63896818026014       0.29622368329993       0.00430539645791
C        -0.52485672372956       1.25932655712903      -1.97816811558426
C         0.56519907020674       1.64982027459434      -1.25963474649662
C        -3.10880519783354      -1.16499310691667      -0.63585914732843
C         1.30915350973834       1.37316399133060       1.11837113597163
H        -3.23141895746269       0.90907378975044      -1.31979800201284
H        -2.64800032478598      -0.26640880753239      -2.55660199778528
H        -1.00521419066843      -0.24021315238072       0.86778545109816
H        -0.87640672708285       1.56225351796033      -2.95541236308286
H         1.34857243175374       2.36004774771763      -1.48782418189322
H        -2.43954648674792      -2.03448919535504      -0.72446211592615
H        -4.10856041133739      -1.46662707017728      -0.98002216430821
H        -3.20492963156078      -0.87384910423027       0.41944688618329
H         1.08844469505580       0.67994328445213       1.93692269520327
H         2.36815922483687       1.29815102451297       0.84230658096654
H         1.02561124973868       2.39930311518201       1.40290185851531
C        -1.77607986739482       3.12492285995560       0.28914159156311
O        -2.49417748660663       2.98486744275940      -0.72762091726179
O        -0.65061138416079       3.64888816350009       0.45651078264033
C        -2.41088343451524       2.53782657784893       1.61342054529747
F        -3.12894403263564       3.48155556156748       2.28443071525691
F        -1.47056990422026       2.05015829283672       2.50461314474630
F        -3.26979453333277       1.47541694546690       1.38933340609208
