37
C9H13F6N3O4S2 optimized with DFTB in AMS.
N         0.58883420980286      -0.46088216245630       0.43842564891939
N        -0.60617453113221      -1.62352805160345       1.79970881744784
C         1.57345086685288       0.49366443824020      -0.06454161391415
C         2.75186589497745      -0.23138636120212      -0.72106232580330
C         0.27373381787037      -0.62805944691949       1.72020191775666
C        -0.08234632321944      -1.38526883806768      -0.31351644127521
C        -0.83473981303904      -2.12060303685970       0.54605176742121
C         3.76669743538180       0.77953807595467      -1.24620307515992
C        -1.15646394028799      -2.17296374587251       3.02876379772185
H         1.91602834496427       1.08535851465548       0.78780220695526
H         1.07186679529914       1.15203415745298      -0.78152475029063
H         3.22409592470608      -0.88096451425714       0.01721356014451
H         2.38750200547732      -0.85577424956225      -1.54116197687625
H         0.67167156039366      -0.06470822554739       2.54590617904888
H         0.02669236828967      -1.44840753297665      -1.38168768135287
H        -1.50084891664240      -2.94712031027219       0.37162194525634
H         4.15044370323030       1.39387453813023      -0.43108145283496
H         3.31326842217321       1.43297102590670      -1.99327302278963
H         4.60184457142241       0.25207724309640      -1.70537322105323
H        -1.09225393768746      -1.42168938607512       3.81294234800039
H        -2.19369170818659      -2.45723160199966       2.86016338178163
H        -0.56376355431964      -3.04638594084197       3.31248238573093
N         1.67273684123446      -3.19558560409041       3.27435063700064
S         2.03037266786285      -3.05646115438743       4.83893979380182
S         2.67638105800467      -2.58095256714965       2.19604874948464
C         2.02072601427721      -1.23855532099715       5.31730059809201
C         4.37019153126669      -3.39288125260275       2.26082300885029
O         0.88288167718600      -3.57725484209723       5.53482216996378
O         3.34346875360638      -3.52328220202642       5.19289340263113
O         2.94439092485650      -1.16043632866861       2.38266705801686
O         2.14871759664328      -2.96112246327914       0.90048516562825
F         1.71986524406099      -1.13345913921886       6.59899205232470
F         1.06253297196811      -0.60150417086685       4.61910361938719
F         3.17009347353574      -0.64067992405377       5.09307243117279
F         4.90819897651643      -3.27730020516501       1.05370241533460
F         4.26144166833884      -4.67120147785833       2.56158031416833
F         5.14893281131514      -2.78883347326144       3.13285937040826
