27
C7H11F3N2O3S optimized with DFTB in AMS.
N         0.12971589374634       0.39835530722083       0.01264590302724
N         2.19259975095816       0.27109625666856      -0.58321867446377
C        -1.11452598733675       0.17318041129416       0.74725015663163
C         1.26346118571777      -0.27040991864839       0.20250702979688
C         0.34112505707846       1.39457077930070      -0.90136259003781
C         1.64464062574487       1.31400523131829      -1.27688392395804
C        -1.46612939338043       1.39570035409794       1.58689834017838
C         3.58759273162820      -0.13778387300734      -0.62413753501144
H        -1.90312008806619      -0.04690396891638       0.02066247112461
H        -0.95522619810088      -0.69402464165197       1.39099450764614
H         1.41122797941869      -1.09017422022275       0.88452854806784
H        -0.43808681917696       2.06958675363198      -1.20812268376587
H         2.21814854557617       1.90814975861482      -1.96646138433631
H        -0.66929903483895       1.59548170286828       2.30092171275046
H        -2.38564278917049       1.19133466604537       2.13333054584917
H        -1.61402140676745       2.27246752022732       0.95762705603455
H         3.65941611161142      -1.14258543465312      -1.04130254294845
H         4.14201732738655       0.56394705243636      -1.24344606522813
H         3.97680917252377      -0.13376487827272       0.39546469392876
S         2.12605137229803       0.20153546120173       3.29335709567401
O         2.49506738629402       0.03903569952241       4.67028489093522
O         0.75914066094028      -0.18000161340586       2.95043128276804
O         3.10389347105106      -0.25870380611276       2.31284492932541
C         2.10232111758369       2.03647199843415       2.99700021131208
F         3.25336123284247       2.62025442951270       3.29581668500442
F         1.13254166878609       2.63732919317837       3.67985366949392
F         1.86130660365205       2.26101928621732       1.68925873200106
