39
C11H21BF4N2 optimized with DFTB in AMS.
N        -1.19213027264747       1.09578506442491      -0.31475349735933
N        -2.52638663831971      -0.53261536472767       0.13039743656753
C         1.16635835411853       1.79805515350635      -0.38702087265073
C         1.70690815716455       0.36579784717145      -0.43009305208294
C        -0.21425845495997       1.90326532730219      -1.03964523618952
C         3.08704950290578       0.26998639598195       0.22356782017163
C         3.62250182276352      -1.16335069325135       0.14449380089408
C        -1.82539312142240       0.05076114150316      -0.83699024203259
C        -1.49008885418496       1.18035183996690       1.02112713768838
C        -2.33176722689722       0.15014602198865       1.29994396877658
C        -3.21810568557223      -1.81098167614903      -0.02771786553829
C         4.99078368547538      -1.28686983973536       0.81240881389317
C        -4.30259678425050      -1.71337017487648      -1.09096129351457
H         1.83767154137948       2.46650011211449      -0.93493539492309
H         1.11168312386868       2.15333030628609       0.64743277450678
H         1.76815035172008       0.03737093292367      -1.47103430637031
H         1.01149863694068      -0.30273347052155       0.08507625430291
H        -0.56036576404184       2.94154750705871      -1.04917164544710
H        -0.18104286503064       1.51637019653324      -2.06199438364834
H         3.01990516874399       0.58079856540237       1.27304876621762
H         3.78277208089135       0.95002758584759      -0.28124238861047
H         3.70120290383801      -1.46263309415170      -0.90536553010594
H         2.91566036004082      -1.84189038639582       0.63285277483154
H        -1.78234682180262      -0.26484696398488      -1.86517829409648
H        -1.09062235655540       1.95276653930629       1.65427869906287
H        -2.79641888069898      -0.14840951254397       2.22338817872900
H        -2.45956881353069      -2.54428653921853      -0.32173972684773
H        -3.63664867656875      -2.08291232020463       0.94437556137111
H         4.92841941835001      -1.01786611580536       1.86833394017014
H         5.71414321943049      -0.62774584270764       0.32948114980695
H         5.35222867764062      -2.31274971588910       0.73678673151831
H        -4.98992504643791      -0.89648233395714      -0.87037578583228
H        -4.85844562868148      -2.64965246622754      -1.11490473525503
H        -3.85146017822038      -1.55290395518739      -2.06905371467827
B        -0.35535032282150      -1.99267970060685      -2.29616579228839
F         0.43779315227658      -2.98081744941104      -2.79266447734262
F        -0.30354465694333      -1.94448265147028      -0.87258931340982
F        -1.71839655352331      -2.17143257027467      -2.63593558250056
F         0.03611217476270      -0.71074647252003      -2.76398251248422
