40
C12H22F3NO2 optimized with ForceField in AMS.
N        -1.44888472714361       0.41536236291708      -0.09464513609073
C        -1.77497464734252      -0.84988138096437      -0.81628674282971
C        -2.54214359113590       0.60586647956645       0.90153172034662
C        -0.14071634868116       0.31371350479694       0.62466966120338
C        -2.99823371146961      -1.47170946901945      -0.16230576398006
C        -3.68073178306737      -0.32330287223526       0.52999377055663
C        -1.44720279266461       1.56508351794552      -1.03685095797832
C         1.10208383279225       0.28845244622345      -0.29679535519813
C         2.35979401737666      -0.09813415173590       0.49120468109348
C         3.60260189059199      -0.07310132771525      -0.40594438496976
C         4.85350648202653      -0.46321999371372       0.37598781700217
H        -0.94678903928670      -1.59222282120516      -0.79715415816550
H        -2.01099993347566      -0.67095490120501      -1.89135434588639
H        -2.90806137041073       1.65746506698324       0.95765121935234
H        -2.21882878455414       0.33765794360009       1.93354297995883
H        -0.13708585486027      -0.60547799813773       1.25640730484319
H        -0.02411365507991       1.17627618003137       1.32118913425573
H        -2.67854287575668      -2.22531413215776       0.59177273424398
H        -3.66691431316036      -1.95422461230179      -0.90809245919437
H        -4.37162211784069       0.18736785771835      -0.17632999022065
H        -4.24469230417603      -0.66445606031076       1.42591617652405
H        -0.77076376891884       1.38114233411433      -1.90001980954680
H        -2.46402258470009       1.73904260722772      -1.45539786875245
H        -1.11914374161376       2.49750238717530      -0.52510127884864
H         0.96305301772595      -0.43175355766860      -1.12969680081955
H         1.25768707837327       1.29930978372828      -0.73213650080818
H         2.23101567824515      -1.12049959081385       0.91070304286963
H         2.49948200401453       0.61493325643813       1.33369938915722
H         3.74354811710390       0.94766773941236      -0.82366454489098
H         3.47021135403394      -0.78372790800167      -1.25085304866274
H         5.02035146323412       0.24497389335517       1.21550334609756
H         5.73697100824417      -0.43206191259522      -0.29591087680564
H         4.75000595853787      -1.49294669357594       0.77975943174499
C        -1.25019172462741      -1.81722069373346       6.26166899030650
O        -1.33971043756845      -2.94239517969621       6.72663104775287
O        -0.21318728205999      -1.18838006441274       6.39845000321049
C        -2.40241037119402      -1.20552824263026       5.52362155515420
F        -2.78694622908859      -0.03700572262134       6.15495322126492
F        -3.47748495886538      -2.07674612548597       5.49185764676302
F        -2.01677177365783      -0.91832945559633       4.22809109844677
