34
C8H18F6NP optimized with ForceField in AMS.
N         0.02762327909642       0.00113034796458       0.00037550201361
C         0.95392437419941      -0.83919215678659      -0.81893485513374
C         0.92078546965576       0.86457392275481       0.83282741822990
C         2.35817093181943      -0.28834193173081      -0.66611679735307
C         2.34258836121139       0.35626322041203       0.69103922208827
C        -0.80344376763303      -0.86714406063468       0.89623705945665
C        -0.81176615293249       0.84959692440454      -0.90691885993856
C        -1.77808858321718      -1.80087804164223       0.15652530425782
C        -1.83815955127481       1.73853987580848      -0.18124985999493
H         0.67795650971343      -0.87562039232638      -1.89744186381431
H         0.98585004516658      -1.89608583620771      -0.46622109968329
H         0.63403184323122       0.88632990704782       1.90895153008758
H         0.92293807270344       1.92463078624169       0.48765804354329
H         2.55066203810311       0.47867812425257      -1.44883428899603
H         3.12688573312818      -1.08937123250036      -0.72858941972827
H         2.55121244617611      -0.40539210087100       1.47493085337438
H         3.08693288790689       1.17936547951609       0.76030113217080
H        -0.14092609823824      -1.50066570055360       1.53072904277881
H        -1.39319497037802      -0.24971029460116       1.60856455071766
H        -0.15669111529103       1.51286293484249      -1.51833122113534
H        -1.36109136709510       0.22114102440014      -1.64134670867284
H        -2.26643874758345      -2.47219413577080       0.89347916727616
H        -2.57821327819132      -1.22546270423390      -0.34909735554732
H        -1.25694126501379      -2.43281843244943      -0.59005718506465
H        -2.28843181507465       2.44457835217017      -0.91039813790226
H        -2.66275510424691       1.13024826914438       0.24310779140109
H        -1.36880941075553       2.33286724542214       0.62830858835232
P        -6.14560539989557      -2.30677636737293       1.09598379958628
F        -4.84419766771550      -3.32618046534769       1.56302470779408
F        -7.28663984756927      -3.20734977257415       2.01142796721140
F        -5.75508230253107      -1.34760107279592       2.46667596339823
F        -7.48394641265725      -1.32539869500454       0.65226031729154
F        -5.17765252524694      -1.27100084120050       0.12701261590210
F        -6.33999241787020      -3.35551513387752      -0.25078533836735
