42
C10H22F2N2O4S2 optimized with ADF in AMS.
N        -0.26592258063811       0.10649400538229      -0.15184895904941
C        -1.33604509306116       0.58139783600370      -1.12284534407215
C        -0.66235057385761      -1.25663130786805       0.38104400526264
C         1.02626565819224      -0.01752670967243      -0.95320132568715
C        -2.71870507974254       0.61007955699012      -0.50266570320002
C        -2.05394760765142      -1.28874115589992       0.99844872501441
C        -0.09365318672729       1.06683171928964       1.01467187908216
C        -3.11443200803125      -0.76603399091631       0.03022401300249
C         2.27399744196930      -0.34537269962998      -0.15197297738414
C         0.25915071586733       2.48622735937552       0.62786850994909
C         3.44432100611066      -0.59105802253016      -1.10839431936604
H        -1.30174027294514      -0.13470208044580      -1.96089402963619
H        -1.02744927744391       1.56022249734704      -1.51049187364375
H         0.10719654801566      -1.55871153722713       1.10452901454944
H        -0.61445743942961      -1.93643419365705      -0.48452013815988
H         1.13213861727672       0.92702787331305      -1.50179805501451
H         0.82675799064304      -0.80070156060769      -1.70169634171496
H        -3.41249695755909       0.94817003798525      -1.28958357008420
H        -2.77132334875361       1.37385771154514       0.29189034673357
H        -2.07395212841171      -0.71551616314613       1.94026769162558
H        -2.25728582872397      -2.33708151546522       1.27524712985378
H        -1.03611175016286       1.04387966940759       1.57467384959719
H         0.67927636568906       0.61121371670322       1.65060362617703
H        -4.09746293766973      -0.72967131112550       0.52608795241219
H        -3.20873521209230      -1.46824948973001      -0.81882353013714
H         2.53052516481999       0.49333710128064       0.51498418915381
H         2.12127956018940      -1.23988520873184       0.47639343252759
H         0.42661988076008       3.05399259278275       1.55658455221657
H         1.17519449198281       2.55682435214089       0.02661646827331
H        -0.55382884496222       2.98279581087107       0.08176098326953
H         4.36027674071567      -0.81080166775806      -0.54155099898659
H         3.23882229399468      -1.44448936267434      -1.77318519530667
H         3.62141791013329       0.28923404036412      -1.74154185502746
N         0.66296688593140       2.77688095346285      -2.86125108407109
S        -0.14613201731419       4.13766128051865      -2.54712839439123
S         2.22152463270612       2.82002592513388      -3.27275366612579
F        -0.43659830267707       4.76384354200317      -4.03417963097028
F         2.95922118242024       3.00511908426174      -1.77272485783589
O        -1.45972325497493       3.71671234604262      -2.07017931604219
O         0.58366156385150       5.16874131526149      -1.83773803516412
O         2.66967317180968       3.96095730944154      -4.03851425293797
O         2.59311660785083       1.46224727307764      -3.63474096409156
