65
C19H25F18N2P optimized with ADF in AMS.
N         1.50928046926981       2.35508865359444       1.45363889817548
N        -0.57274581463887       2.64364476048074       0.91618106153440
C         2.95026869221875       2.11354324541476       1.32696752612949
C        -1.77150026520079       2.89518363123119       0.10178454121032
C         3.26244216071852       0.61944129710766       1.33565517228367
C        -2.00292329239703       1.76854352885364      -0.89993267755608
C         2.58002185941114      -0.14846684937388       0.20657302070385
C        -2.13301929895779       0.39229102391787      -0.25138360630404
C         0.67123661532089       2.56207685568571       0.43186755732327
C         0.78145200469680       2.30857553264113       2.62298347493028
C        -0.52718662443910       2.49444722943566       2.28311545474354
C         2.89847072302198      -1.64269242854347       0.21152657745872
C        -2.31694773085706      -0.73488892122405      -1.26674726672568
C         2.16987439025508      -2.39293931992435      -0.90069420278839
C        -2.37902694830348      -2.11127308655630      -0.60997430811768
H         3.44172475105919       2.64904196038692       2.15135998722752
H         3.27151055834212       2.59207295314393       0.39190691974834
H        -1.63579759872634       3.87350974003865      -0.38078063233325
H        -2.60853897754119       2.98207777918342       0.80854843484686
H         2.97352217814869       0.18882950335676       2.31114182754576
H         4.35859282812048       0.51526692971261       1.25699099917643
H        -2.91759733030416       2.01641942839086      -1.46615430597135
H        -1.18273421089143       1.75980576622048      -1.64060106526552
H         2.87788639820802       0.28721757449650      -0.76640128310001
H         1.48412021464174      -0.02684519177101       0.28483504418680
H        -2.98541931534675       0.39712377758487       0.45425028390222
H        -1.23223973115890       0.18072596766311       0.35474484485243
H         0.96189373307401       2.70417566812947      -0.60047491033492
H         1.25283951909978       2.17474764141562       3.58819953920894
H        -1.41562017087389       2.57576004165973       2.89594959024314
H         2.62028856143992      -2.06773677709583       1.19295942856629
H         3.98906365420354      -1.78601783484099       0.10873919763041
H        -3.23926614448696      -0.55576741940628      -1.84877529497012
H        -1.48374937105698      -0.70717519539563      -1.99294699916074
H         2.46496950971112      -2.01295522467229      -1.89226331127714
H         1.07842846359670      -2.27240381343634      -0.80666977020879
H         2.39260858327751      -3.46999536337602      -0.87360212897898
H        -3.21621065003210      -2.17190838921937       0.10454731788913
H        -1.45067516851885      -2.32505686953276      -0.05502010140907
H        -2.51539470634059      -2.90782375259326      -1.35635096348879
P         0.86252467827802       6.79347069935798       0.90569864352141
F         1.68347669840401       6.40597657875789       2.30429998451877
F         0.86031634173812       8.41478831130622       1.21537727664247
F         0.83969992876789       5.14204233492096       0.51589272773950
C         2.67913222048561       6.99936575616377       0.15481031121765
C        -0.82394363916989       6.62976472776771       2.05487604586125
C        -0.23871048918218       7.04567784507529      -0.78212822808137
C         3.61454694646016       5.75714973743652       0.01510232580313
C        -2.07218145852049       7.58127450558936       1.97117082906980
C         0.21071185146751       6.83421937253390      -2.26889817267084
F         3.38975131612586       7.85362964842503       0.96751787119560
F         2.66535625625993       7.57865417838753      -1.09546683251253
F        -0.42903911590325       6.80424722293981       3.36264529787703
F        -1.35596485300471       5.34213331021258       1.98758259309617
F        -0.82624575925839       8.28558847125822      -0.77545119792048
F        -1.26571622417007       6.10547434565244      -0.65785736479122
F         4.84115508704281       6.15749608029814      -0.41561165613173
F         3.15500470436865       4.84630059912685      -0.89169501982202
F         3.79260240866575       5.10787388657661       1.19334752657473
F        -2.86647385348003       7.33343120303472       3.05950295775203
F        -1.71122986485088       8.87912661836244       2.01328630412155
F        -2.84716724642338       7.38022543040015       0.88105747248145
F         0.83697445884769       7.90732739156463      -2.78669328577143
F        -0.89812616590467       6.61805158506038      -3.03953221557810
F         1.00541485759243       5.73894834600695      -2.40387787601954
