41
C11H22F3NO3S optimized with ForceField in AMS.
N        -0.55873226105712       0.30031194418345       0.14962768807883
C        -1.54651645628696       1.23304812005422      -0.48002102073226
C        -0.90174928016102      -1.11356138551460      -0.19298772641421
C         0.78261887147535       0.65837956324970      -0.42060959150807
C        -3.01643580072089       0.90841350155403      -0.15958021067995
C        -2.35610130675855      -1.49092769756675       0.14671619186047
C        -3.34264499426277      -0.53693342913273      -0.51791902112920
C        -0.53934682688466       0.50038577357390       1.62446482041306
C         1.98656982877654      -0.16390169264572       0.10214120822405
C         3.28688352957814       0.32255002938651      -0.55295849137353
C         4.49416680068809      -0.46592682469821      -0.05404336958965
H        -1.44589771618147       1.20668859118067      -1.59073734390270
H        -1.34556107227037       2.28393365547969      -0.16989392377862
H        -0.24386077474161      -1.82529015790294       0.35131767436982
H        -0.74700235686233      -1.29356246642589      -1.28190805947925
H         0.99918222260963       1.73378211395402      -0.21964377541013
H         0.76361982160966       0.54801208758875      -1.52983557979774
H        -3.67050272832844       1.58092438448940      -0.75561276809478
H        -3.24861662305175       1.10443904375725       0.90732067566628
H        -2.51277649093834      -1.50034187984692       1.24605831027993
H        -2.55993445336166      -2.51793587027412      -0.21973859226773
H        -4.37460993495426      -0.77783586333379      -0.18316160177428
H        -3.29890481891190      -0.66655066454239      -1.62175292442150
H        -1.54028761305424       0.38094047671098       2.08118573476673
H         0.10651855910035      -0.24752809419781       2.12997932853138
H        -0.17761594084682       1.51964778520637       1.88530375311608
H         1.85617702367279      -1.23929648674564      -0.13833647782394
H         2.09428139442674      -0.04676828055028       1.19984824583834
H         3.44316031893678       1.39872982423472      -0.32020244148904
H         3.21624109692100       0.20954921904727      -1.65678776787359
H         4.38050351061801      -1.54305743904463      -0.29977416211908
H         4.60575538213057      -0.34823241662309       1.04484695519056
H         5.41380187336797      -0.08460683740085      -0.54614061981944
S        -1.46157218811262      -7.16448533315745       1.22584324392619
O        -2.69102142267128      -7.86636887609162       0.62957664683507
O        -0.52014165467711      -8.33081218438132       1.56156120668523
O        -1.95628832734531      -6.70402978445633       2.60532573899195
C        -0.74090233398679      -5.86219835311570       0.19055519774069
F        -1.68616626502668      -4.88141993259177      -0.03114505835525
F        -0.34441128320572      -6.40023007499510      -1.01883384953927
F         0.35238552634903      -5.31267341521526       0.83285175205858
