39
C9H20F2N2O4S2 optimized with DFTB in AMS.
N         0.53613258770592      -0.15640963979782       0.38042145043865
C        -0.46824314666292       0.66687858558525      -0.37016865110241
C         0.05477857212519      -1.58286587503468       0.43200671027786
C        -1.87271066704542       0.57566707729743       0.21612135955886
C        -1.34332909825407      -1.72479103275170       1.01749366379016
C         0.74724915416179       0.35043277782964       1.78118589510675
C         1.81855184430898      -0.11235561837119      -0.41409537864754
C        -2.35039098060574      -0.87541118951140       0.24852675344588
C         1.30404750032776       1.75832055669150       1.89358170545262
C         3.00881731791999      -0.79912471338465       0.23836669190040
H        -0.47375464524962       0.29759364553110      -1.39997172808935
H        -0.11605664186701       1.70019297774348      -0.37301319299739
H         0.76439807632538      -2.15238169713550       1.03244076691801
H         0.07161615564327      -1.95858962335188      -0.59518377542409
H        -2.53086214636432       1.17493320880129      -0.41864887766027
H        -1.89820799113148       1.00474586280702       1.22076351553954
H        -1.34567998879034      -1.44938740872832       2.07328158371978
H        -1.60972734437089      -2.78258886501804       0.95460822562660
H        -0.20886846820708       0.29305079184381       2.30033295764096
H         1.42635744233997      -0.35648406098244       2.25605142367026
H         1.59725847625808      -0.58254228213397      -1.37629563516432
H         2.04678750830615       0.94076178794748      -0.59521189027327
H        -3.32811025524106      -0.92998528884403       0.73211313017088
H        -2.45354558828419      -1.25043496320482      -0.77522156603949
H         1.46032907006348       1.94333322375490       2.95694592827012
H         2.26335687373349       1.86399735263830       1.39088717806960
H         0.61274683342779       2.50744861150042       1.50943134824531
H         3.80344821282109      -0.85208043693360      -0.50568806167117
H         3.38217354568672      -0.23991892879693       1.09328376697006
H         2.77310999039309      -1.81068433986090       0.56161464316724
N         2.37916222581709      -2.09592089750458       3.16948997935972
S         1.08934492950072      -2.78306081977190       3.78490495505092
S         3.09437711128528      -0.95912623804766       4.03790663617367
F        -0.01160926550396      -1.55068844483658       3.83763194951588
F         3.73586594081079      -1.73082558231055       5.28657651514170
O         0.55063871622692      -3.63526825987757       2.76769706799277
O         1.15603578063347      -3.24443051164896       5.12690330629333
O         2.22049752270274       0.01933230915798       4.60968113781549
O         4.20581030125293      -0.49733386398992       3.26627914144627
