34
C8H15F2N3O4S2 optimized with DFTB in AMS.
N         0.21749961826163      -0.09908756317817       0.20086504423050
N         2.33992856248934      -0.47234319935016       0.14593936463678
C        -1.11974952508991       0.26668621691604       0.66040438644927
C        -1.33973807294837       1.78379192558297       0.57797814063001
C         1.32137040190733      -0.15497557512282       0.94510811178489
C         0.54344843091494      -0.35614795960704      -1.10205797140247
C         3.72726596346616      -0.61460438425646       0.60298287743269
C         1.87962442211618      -0.59987989800157      -1.13478857570141
C        -0.77452656815798       2.51779979123109       1.79014272805646
C         4.72529834903277      -0.39377848230142      -0.52283035546043
H        -1.23705940133364      -0.09422870814842       1.68623229401810
H        -1.83188206529797      -0.25616038582973       0.01688053234418
H        -0.87893756247820       2.16110336657964      -0.33813696260891
H        -2.41764051786763       1.95774677060924       0.51392091616403
H         1.38913319157193       0.03731328116542       2.00186652330101
H        -0.18545592404350      -0.32455552287369      -1.89225969353080
H         3.87789742772471       0.12287023778286       1.39604650768365
H         3.83550497889721      -1.61816939006534       1.02934609899163
H         2.52345186254183      -0.82546233270858      -1.96486628041594
H         0.29612987610541       2.34370976603082       1.88030587339959
H        -1.26460191021466       2.18279891865702       2.70549330168121
H        -0.93939770804942       3.58830709976069       1.67536015959102
H         4.67824153188213      -1.19785474727894      -1.25647551018174
H         5.72550848589649      -0.37127654327344      -0.09231617492334
H         4.53799075904027       0.55779924162501      -1.01692986017054
N         1.72266605070500       2.50359752003681      -0.16576408087134
S         2.99385828042435       2.79835855514527       0.73805071196434
S         1.81198012905172       2.80662076765403      -1.72177682896151
F         2.89597451683141       4.36888619122437       1.06491151085613
F         2.89083521227429       1.68533829037777      -2.24869674339164
O         2.74089427870729       2.15514513135306       1.99893658402772
O         4.27994021060417       2.61934422745222       0.14300717780197
O         2.36754659901090       4.04892676193213      -2.13087203418509
O         0.57472039892382       2.36016886727935      -2.28658972474006
