43
C11H17F6N3O4S2 optimized with ADF in AMS.
N        -0.49492685479024      -1.45062676276855      -1.36819158933716
N        -2.40594806081818      -0.55483286034613      -0.85951939525241
C         0.74500900307249      -2.22661615713409      -1.26636308200982
C         1.94653749174411      -1.33686611470424      -0.96881020190600
C         1.85373292280253      -0.62269578943552       0.37813161382225
C        -1.38356416217944      -1.27620956976461      -0.38234121400125
C        -0.96208133670233      -0.82270136828151      -2.50246529186493
C        -2.16564998512251      -0.26685392246108      -2.18602444506445
C        -3.65450790090269      -0.27534264829689      -0.13441398103893
C         3.06557211166029       0.26304339441987       0.65452294213817
C        -3.96436867557914       1.20993849673857      -0.08959109479372
H         0.57314810156151      -2.98182469818998      -0.48644431273862
H         0.85322446537813      -2.76672181966779      -2.21842784445616
H         2.06735630051891      -0.59533050336056      -1.77948985645026
H         2.84441680307043      -1.97902463726747      -0.99177369047058
H         0.94029803147872      -0.00252490795645       0.40329618731783
H         1.74850106470956      -1.37652876002919       1.17971647724609
H        -1.31921930856115      -1.70785046471242       0.60789786199932
H        -0.42785678435470      -0.87052021098342      -3.44222767754372
H        -4.43665304912516      -0.85700027251280      -0.64518079346950
H        -3.53115917305932      -0.70126722280465       0.86953472692529
H        -2.89472336263549       0.23921953434048      -2.80352543416848
H         3.16507275577193       1.04409429499986      -0.11598889241099
H         3.99504550746376      -0.32747095927678       0.65727291886740
H         2.97852436470561       0.76146728133231       1.63143198133838
H        -3.15353030637344       1.77325220135956       0.39577698626555
H        -4.88929685023306       1.36391159159385       0.48461769045885
H        -4.12676288083051       1.62194375988756      -1.09600213583758
N        -2.60372514123627      -3.86209405752220      -1.91176138453873
S        -3.93533578018823      -3.51671897261365      -2.77083437431596
S        -2.64427802951120      -4.15942859567411      -0.34374373854187
C        -3.11441650837372      -3.64699897803663      -4.46469953315863
C        -3.35994404633039      -5.90094878793486      -0.09551161472492
O        -4.96131845294051      -4.55034601841423      -2.75391998595671
O        -4.34802250181942      -2.11163901797352      -2.68302614293611
O        -3.54761754000373      -3.30119991658730       0.43100421846331
O        -1.25488196592258      -4.28584559892485       0.10801607197152
F        -2.69833796261418      -4.90227381499664      -4.72231014410900
F        -2.04640122770157      -2.80817045221096      -4.57693415502411
F        -4.02631588386780      -3.28697862245519      -5.39870241621558
F        -2.92174714816338      -6.37610899940451       1.09761581006249
F        -2.94866204755084      -6.73691259410760      -1.07247296367309
F        -4.70545904094682      -5.86702961136166      -0.07598576206719
