28
C6H14F6NP optimized with ForceField in AMS.
N         0.58448020531087      -0.00316328389614      -0.00273480558442
C        -0.30848340555716       1.06775243519211      -0.52471615402186
C        -0.30493159652186      -1.07193792850535       0.52974531987409
C        -1.72441676750739       0.75002090428408      -0.07701289948163
C        -1.72654675859741      -0.74585293334713       0.10693965382895
C         1.45305839012765       0.52834510631825       1.07418288957033
C         1.43937053711721      -0.53645539640305      -1.08957386597747
H        -0.30543243852330       1.10690776462772      -1.63939065022884
H        -0.01929956513785       2.08519330292975      -0.17420445492879
H        -0.28396997095138      -1.11559435453619       1.64402292131276
H        -0.02647479249820      -2.08937160171157       0.17048911002250
H        -2.47902949293534       1.07044435789235      -0.82821149234299
H        -1.93240844662694       1.24751131835124       0.89592686013559
H        -2.47053028663753      -1.06336646988716       0.86969617355936
H        -1.95304413890885      -1.24112816999826      -0.86179668346651
H         2.13814111201825       1.31347661202491       0.68239892800322
H         0.84322892596664       0.98170586649034       1.88760040842152
H         2.07287532392618      -0.28242673568960       1.51902567420638
H         0.81937820269440      -0.98973055475614      -1.89550823206548
H         2.05507009237510       0.27346536405293      -1.54171571471529
H         2.12811564171114      -1.32198108438496      -0.70513553555789
P        -1.39193048626077      -3.90800918345825      -3.90916246284449
F        -2.44702870256275      -3.68802827276139      -5.24685296455275
F        -2.16488083490244      -2.58053004371051      -3.14209433670930
F        -2.50918386097807      -4.98218218277599      -3.16812175288593
F        -0.34021074611583      -4.10931742845646      -2.56565082394691
F        -0.66996111133435      -5.23180264542538      -4.73239669585571
F        -0.24433316129001      -2.83925760836015      -4.61036081686846
