48
C14H25F3N2O3S optimized with DFTB in AMS.
N         1.33150540840104       1.98992606322967       0.89889302070904
N        -0.78115314452192       2.29865510186549       0.63332686913214
C         2.76408526408083       1.97050777254088       0.62131709618914
C        -2.03773588293102       2.67154769983006      -0.00617723551471
C         3.40731428697518       0.68776352690871       1.14190260511484
C        -2.51820631568830       1.56382125292829      -0.94239119527762
C         2.80400929923619      -0.55640494387502       0.48129439508115
C        -2.75943242727584       0.24909096931807      -0.19366480784244
C         0.38705929841845       2.23219282272379      -0.00362303619285
C         0.76307564288985       1.94682921528164       2.14475585157785
C        -0.57030604512344       2.14016552617332       1.97575369027507
C         3.44444691839060      -1.84009796711009       1.01823562818708
C        -3.23616938089744      -0.85359721275739      -1.14413932040439
C         2.83425740154753      -3.07908384501534       0.36549728084732
C        -3.45000826702875      -2.17154714446376      -0.40206366430281
H         3.19512544295000       2.85494017673618       1.10083922423018
H         2.88952513627183       2.05898957914323      -0.46048259434051
H        -1.84978186076842       3.59766200342831      -0.55785928186796
H        -2.76664822338023       2.86541079922648       0.78320343751239
H         3.28498933618974       0.62797538888556       2.22731096726933
H         4.47850543485766       0.73878044375196       0.92810250663185
H        -3.44646363845640       1.89921386811032      -1.41323573226531
H        -1.77703184259920       1.40882924071316      -1.73241630626055
H         2.94957169475798      -0.49875850366317      -0.60295751309122
H         1.72486931125242      -0.58016675382019       0.67095792723306
H        -3.50802183419286       0.40836731697589       0.58993749448753
H        -1.82966566810083      -0.06630591696910       0.29320099709755
H         0.54072307783294       2.35654469836233      -1.06036141828197
H         1.34661949687464       1.80969667454252       3.03737191953048
H        -1.37231840690268       2.19275140577792       2.69052481499471
H         3.30080552670860      -1.89083338527047       2.10279260575866
H         4.52174410568216      -1.81777890185624       0.82386870830846
H        -4.17359556248447      -0.54479584979834      -1.61814561273680
H        -2.49235844497521      -0.99703411248565      -1.93521712360106
H         2.98560236318724      -3.05604267758208      -0.71450732224267
H         1.76270258953991      -3.12794268397498       0.56486724558552
H         3.30308309413083      -3.97918064836916       0.76300855373370
H        -4.19918401946047      -2.05187425496754       0.38164097816130
H        -2.51874892239812      -2.50776663506559       0.05626221062769
H        -3.79262004034279      -2.93898022986073      -1.09609833062800
S         0.91253484212819       5.43840687335271       0.63241348427961
O         1.35180313646427       6.75444308312701       0.26098598070075
O         1.86180889673064       4.64314547636922       1.39582792911893
O         0.24547116349257       4.68380390418882      -0.42941150065946
C        -0.47097853537110       5.72155969135595       1.86631088248641
F        -0.81981283897367       6.99413154476881       1.95666228608510
F        -0.12303698184978       5.29361978759258       3.08084067421015
F        -1.56634793866837       5.02174983069594       1.51563906845335
