43
C11H17F6N3O4S2 optimized with DFTB in AMS.
N         1.54082606164746       0.25809749232681       0.27782423835736
N         0.32292610963655      -0.13108528543305      -1.45336749625587
C         2.49611497201172       0.09690874426707       1.36926410730691
C        -0.34181359710568      -0.80897910325951      -2.56092845272730
C         1.14286349954352      -0.69284033830691      -0.56686064937045
C         3.93511318742388       0.29924113126333       0.87494873830582
C        -1.78577680119481      -1.15117678149604      -2.19268163616843
C         0.99020181033128       1.45269691557586      -0.09970739516862
C         0.21539002724899       1.20444242298206      -1.18719522839210
C         4.47218285418109      -0.93060958172555       0.15277362003565
C        -1.86415026262383      -2.16445320893729      -1.05279414473758
H         2.36350111551731      -0.90287820472608       1.79244396739566
H         2.24390615767452       0.84081423367894       2.12945958442130
H         0.22977886905764      -1.70800994940667      -2.79701797716987
H        -0.30807677808752      -0.13408496851218      -3.41960231593867
H         1.43183987814193      -1.72863935683764      -0.54130413019537
H         3.96352544814045       1.16321362915427       0.20621507004820
H         4.55435577038417       0.51896441231342       1.74963836330064
H        -2.31627725375422      -0.23561231869072      -1.91435493335553
H        -2.26527259699575      -1.56367414657487      -3.08428195407189
H         1.19473259907318       2.36734524171092       0.42807133995548
H        -0.36464829040393       1.86307178342376      -1.80855196796913
H         3.88404782751225      -1.13175254678021      -0.73994545848505
H         4.44572229456360      -1.80557172827614       0.80396551107698
H         5.50098883466195      -0.75236270496254      -0.15639718837485
H        -1.41015909913504      -1.75987936530684      -0.14680829431630
H        -1.34310819712107      -3.08352986276919      -1.32293390637374
H        -2.90560785002003      -2.40379157999998      -0.84067788641093
N         2.30610117151531      -0.75111495371877      -3.96437634035223
S         2.63293375673682       0.72792174975052      -3.45588516736655
S         3.50044373401371      -1.83330033249795      -3.94560659946426
C         3.90140065325927       1.50980224738976      -4.58702893464451
C         2.45630022607352      -3.29863409721108      -3.47169536327573
O         1.42334971398470       1.49696641502574      -3.67553849966091
O         3.21408468093290       0.81606832510791      -2.12711860105971
O         4.46487777511047      -1.70472868127939      -2.88183140961577
O         3.98077464128859      -2.12477558222764      -5.26835392732178
F         4.00986802340073       2.79150974030142      -4.26983106422285
F         3.50603364818457       1.40877177554044      -5.84326090651238
F         5.07501928284068       0.92926855569547      -4.44669599094426
F         3.13129705475154      -4.42694256466366      -3.54735605124106
F         1.37231213030787      -3.38832279577497      -4.23209984256881
F         2.03804250358969      -3.14264530673289      -2.20294346897152
