37
C9H20F6NP optimized with DFTB in AMS.
C         3.56186465594598      -0.15229687415233       1.06906288852743
C         2.39526653420689       0.79757567788192       1.29957874759957
H         1.55394192683747      -0.06284472436605      -1.14520626234887
H         0.97221398317263      -1.59876308800069      -0.45700195846930
H         3.66151793297765      -1.06625653053694      -0.91857023634748
H         3.12273510813588      -2.16445547874335       0.35669941054593
H         3.81724171271529      -0.67684841958467       1.99139960637152
H         4.44055426561457       0.40186731031962       0.73665679080431
H         2.30626851508036       1.13792567352748       2.32858178772488
H         2.44776134767627       1.65655114392998       0.62670207618831
H         0.09733224228299      -1.66991596840094       1.62513248256874
C         0.80880028008036      -0.94315349521535       2.01044347077127
H         1.70596973413512      -1.45099423766502       2.35296938907662
H         0.37611806600238      -0.38711410801002       2.83730014916777
C         0.05389030775388       0.98305679931395       0.67403421708887
H         0.05029874794434       1.64497899153276       1.54400049142139
H         0.32778015842291       1.56419638527027      -0.21074497712809
H        -1.61226599695315      -0.20887591768522       1.38017027071987
H        -3.23483508636956      -1.21887980642821      -1.90013157197395
C        -1.58732881769289      -0.39182941064837      -0.77731962506708
H        -1.18738410271620       0.16580016329339      -1.63114400713516
H        -1.07110988147460      -1.35549187294324      -0.73098097666209
C        -3.08000477371106      -0.64383456172235      -0.98744562630414
H        -3.61861248258529       0.30017627096142      -1.07457915628504
N         1.17159453354750       0.01031815377188       0.92422556974750
C         1.61912686601312      -0.73881152600606      -0.28966263790510
C         3.06899110408597      -1.13569274835050      -0.00477263705341
H        -3.49288230029783      -1.20394686764759      -0.14798609494122
C        -1.34746941781251       0.39942262774445       0.51247845561953
H        -2.01673866832976       1.26643110828520       0.51609810470320
P         1.28864301294460       1.10054036879875       5.01899605910213
F         1.89492525556285       0.50872597029691       6.40112310518828
F         2.31102303609038       0.08753087499970       4.13357629173840
F         0.14442571483918      -0.09504145097021       4.96250270945938
F         0.66961960571390       1.66832859065326       3.53518164550651
F         0.26374393492610       2.08357878672677       5.80568654619002
F         2.43133970523426       2.26604683506945       4.94342175368955
