53
C15H32BF4N optimized with ADF in AMS.
N        -0.48041042239872       0.86914554748757      -0.51393882300652
C        -0.95108236866541       2.07867611958079       0.28908256340814
C        -1.30058280299034       0.79310744416522      -1.79627266783447
C         0.96762208129386       1.07919122882224      -0.93782958600284
C        -0.62379175817652      -0.37357167644973       0.33125112324733
C        -2.44984241067869       2.07094436508232       0.55526869979414
C        -2.79653854538790       0.73717171440880      -1.53918184151203
C        -3.25425614469774       1.95668602326312      -0.73867236511032
C         1.98255246239032       1.13686735810490       0.19161317882761
C        -0.16277489986545      -1.66363046270819      -0.32255653700603
C         3.28326988614781       1.75619443084320      -0.33149228129566
C        -0.35634015473913      -2.84159876164014       0.63304055138152
C         4.36758175701034       1.84891339431324       0.74003907478607
C         0.09517455091445      -4.16807092157853       0.02555167362867
C         5.64431090114195       2.50465571691435       0.21769342137717
C        -0.10933908511143      -5.34381485616738       0.97637015565945
H        -0.66058196971572       2.96109328125438      -0.30057849056509
H        -0.38315667871675       2.07008233470775       1.22847516991486
H        -0.93620994049899      -0.08159209097401      -2.35105166908311
H        -1.03297425960906       1.69744836312666      -2.36531312283311
H         0.96972566578660       2.01894396180151      -1.50538300945972
H         1.20021914202270       0.26569156687992      -1.64042904606968
H        -1.68101078175724      -0.45135240041575       0.61350469318286
H        -0.04923327988504      -0.18111539022886       1.25009154293681
H        -2.67625812564281       3.02282486225996       1.06415543984702
H        -2.72781962566934       1.27046416596808       1.26426523305088
H        -3.08462392426489      -0.20290559556647      -1.03363013781516
H        -3.28727401887941       0.71880240029682      -2.52651173492048
H        -3.08106822020847       2.86123072137198      -1.34466743522703
H        -4.33118710112428       1.89253662023900      -0.51592089893410
H         1.61625421253911       1.77157880608079       1.01445364856578
H         2.18361471134242       0.13478738341909       0.61129504863210
H        -0.73297623421953      -1.85640580261169      -1.24634052915357
H         0.90115921803368      -1.59919570707576      -0.60235239421138
H         3.05192243414528       2.76322648488238      -0.71956644632254
H         3.65922275210095       1.16625658913986      -1.18780668707824
H         0.20710986791496      -2.65666562256144       1.56664337592373
H        -1.42194816484887      -2.91503169691401       0.91915069951989
H         4.59628840813231       0.83828457432515       1.12592197922442
H         3.97911118411364       2.42982530972906       1.59674405638130
H         1.16143964614483      -4.09296696597240      -0.25486288819412
H        -0.46127026408809      -4.34413019637184      -0.91314518304144
H         6.41585655308003       2.56562113726484       1.00040473335756
H         6.06334062874525       1.93478607926655      -0.62705187609906
H         5.44035013780878       3.52650876586352      -0.13894430387122
H         0.22108376083180      -6.29016378189411       0.52328914205700
H         0.45890793113528      -5.19912762993342       1.90927587684615
H        -1.17237113737007      -5.45147602187903       1.24533770110937
B         0.07906050206273       4.22558965327372      -2.58211105807713
F         0.41767820414739       3.05572533565539      -3.34625197749184
F         0.87262528826617       4.20242376901828      -1.37784319338556
F        -1.29870012578613       4.10276762123250      -2.19009873116273
F         0.29983369004339       5.38983362439986      -3.31022557319564
