35
C11H18BF4N optimized with ADF in AMS.
N         2.89358382556148      -0.45485581930591      -0.21692764458900
C        -0.86308689808217       0.02297447079857      -0.76383900208842
C         0.41006621611032      -0.26021356716528       0.03241543138374
C        -2.06588218434945       0.30132657605057       0.13502877665294
C         1.57919860839848      -0.52154039057156      -0.90890031470850
C        -3.32329463817531       0.66910069469650      -0.65058661483850
C        -4.52489076473225       0.93439857277796       0.25194289577281
C         3.71265463418189      -1.52907583335135      -0.17826539077678
C         3.28584184389678       0.74015238558410       0.27320829664020
C         4.97286776052139      -1.43169798443218       0.37662401140915
C         4.54364072121109       0.88706235327306       0.83385662805913
C         5.39880835285136      -0.20451678314362       0.88832925511478
H        -1.09130791691196      -0.82757746599829      -1.43334635426958
H        -0.67113372618469       0.90110725387584      -1.40547162845494
H         0.63413415546766       0.62744679460488       0.64703875728697
H         0.27201644687807      -1.11515816744263       0.71922534852595
H        -2.27402810683807      -0.58258997897889       0.76788627500718
H        -1.81686958152954       1.13014220731747       0.82419052626429
H         1.63010263421235       0.25789690662031      -1.68603940271780
H         1.51429694446465      -1.51336304451302      -1.37838099637861
H        -3.11365701328258       1.56369606385020      -1.26454391217973
H        -3.56221751712371      -0.14507287501168      -1.35929767799956
H        -4.31840400693523       1.76465419020869       0.94649730985298
H        -5.41748776549598       1.19991116658848      -0.33410655765681
H        -4.76875802564454       0.04527308558470       0.85603759512666
H         3.32473016440170      -2.44623652894628      -0.61665496368076
H         2.58272650480759       1.56550760497620       0.17338590325875
H         5.61784385166522      -2.31015082290613       0.38849075319796
H         4.83602715774614       1.87962784733847       1.17601192832313
H         6.39957781666066      -0.10350633385187       1.31097831247498
B         2.76942372891376       2.89296700258825      -1.83356702142538
F         3.41807624923734       3.47883771263027      -0.70562603121088
F         1.44866135073977       2.47223772824297      -1.40240820798334
F         3.48437131619339       1.69046187070896      -2.18916255597061
F         2.68634492136438       3.76645976600225      -2.90955113412240
