40
C12H22F3NO2 optimized with DFTB in AMS.
N         0.04040044395730       0.32428754272291       0.41471833938641
C        -1.16484385087429       0.92175026785752      -0.24913393071815
C        -0.14597703336900      -1.16010201625126       0.53962913838421
C         1.21859281730382       0.61063982905866      -0.48413396716535
C        -2.46934441654360       0.59164970375413       0.46955761132266
C        -1.41992175851812      -1.52475226479352       1.28617368183909
C        -2.64790846630920      -0.91959386368434       0.61023459213810
C         0.26699805321930       0.96682512796960       1.73952986713070
C         2.56163991393090       0.04726664373355      -0.02263236906191
C         3.65015680074256       0.53681359993159      -0.98697475123089
C         5.01713539673205      -0.03333360675971      -0.61575852596838
H        -1.19685712049634       0.52766353982326      -1.26893642468186
H        -1.01234608008427       2.00297412470504      -0.29358814221631
H         0.71890524333568      -1.55332201455817       1.07927285014450
H        -0.16674484350634      -1.56364208896699      -0.47654341698375
H         1.28010833753841       1.70001131906440      -0.56922079538356
H         0.96690421111764       0.20325915304253      -1.46791757104329
H        -3.28520073240304       1.01202437049329      -0.12462530909734
H        -2.49771455160698       1.06765849327733       1.45306197478325
H        -1.35424530924650      -1.19713947551509       2.32653781449647
H        -1.49525827453398      -2.61488836627975       1.28784343526715
H        -3.54239397455789      -1.12916972808695       1.20124059100648
H        -2.78141844549049      -1.36590464611092      -0.38080417335007
H        -0.62365024162484       0.86757325505258       2.35259234903538
H         1.09742878866441       0.46713963413187       2.23639918876557
H         0.49128952118927       2.02018835081224       1.58116814640987
H         2.53900868913539      -1.04417330102676      -0.01612243494079
H         2.79661179456505       0.37545680074383       0.99111091247767
H         3.68900509548388       1.63187076422579      -0.96153611628795
H         3.39219606601245       0.23595445977352      -2.00912345286001
H         4.99983401765938      -1.12176621168874      -0.66294520197703
H         5.29267346047075       0.26223265593956       0.39592692482569
H         5.77196589940617       0.33752015836418      -1.30938245599590
C         2.71698965255941      -2.05055467252057       3.19026832441726
O         2.58842615813964      -2.90980196546704       4.03173959552326
O         1.90627021543511      -1.30137872775961       2.61483539713215
C         4.22740026047074      -1.79982766891715       2.64218567650349
F         4.36689299963658      -2.31605018462497       1.39375333457023
F         5.20588093749467      -2.31906127452664       3.38798675537544
F         4.49039727456438      -0.47401162573923       2.51750085192751
