45
C13H25BF4N2 optimized with ForceField in AMS.
N         1.35486340996591       2.28395773798726       0.04101926086096
N        -0.84931958607521       2.43667276121021      -0.21565290506544
C         2.73518717171201       1.87338338263086      -0.20820582713692
C        -2.18349506280646       2.23450706744714      -0.78034496287002
C         3.00597394842764       0.47458461514812       0.36552567133718
C        -2.41890934828505       0.75457805064880      -1.12101929502554
C         2.08501129333824      -0.58866547991833      -0.25212129885550
C        -2.35262830413419      -0.13841161781965       0.12664628298786
C         0.32700909290309       2.19089502087174      -0.82478831908039
C         0.81318741982431       2.60791787084872       1.23220670105304
C        -0.55351287809792       2.71062472635092       1.07137285397745
C         2.44339405767069      -1.99451846621473       0.23905751543328
C        -2.55066651882284      -1.61350087537210      -0.23653363302003
C         1.46776958626372      -3.03111484258189      -0.31305718917603
C        -2.47249306309396      -2.49953543000262       1.00452619174442
H         3.42732654105528       2.60580828249532       0.25996608772888
H         2.93753842914784       1.87200782643842      -1.30189772605522
H        -2.28540006604272       2.84543744694205      -1.70257806191508
H        -2.95958076738233       2.57680535967806      -0.06100120209973
H         2.86835286520040       0.49245318415870       1.46871032801278
H         4.06495837901663       0.21179024365823       0.15862189566812
H        -3.42134162887447       0.65308545521426      -1.59114584163793
H        -1.66278490817942       0.41972438587142      -1.86399515458166
H         2.16734176713734      -0.55354414114406      -1.36077727403370
H         1.03291253675200      -0.37124963015860       0.03079012278308
H        -3.13953755813010       0.17661090866313       0.84665315507700
H        -1.36218039818111      -0.02311511848452       0.61697042918515
H         0.42451936724308       1.86164664766009      -1.85187061641696
H         1.36262349751971       2.69614113573612       2.16030301180862
H        -1.28147890085914       2.89307061201028       1.85068682742986
H         2.40873908911758      -2.02462188977915       1.35011768263122
H         3.47291258396314      -2.25537295235862      -0.08906046735216
H        -3.54287662683039      -1.75285505830750      -0.71826489229746
H        -1.76423446682507      -1.93002426148217      -0.95620305085086
H         1.49118312697044      -3.03399968315115      -1.42358544940390
H         0.43568753896560      -2.80630396469712       0.02681061745524
H         1.74685677983636      -4.04148499397388       0.05271775102324
H        -3.29496960643995      -2.25046392267617       1.70800814568226
H        -1.49913403580137      -2.36014074332197       1.52172515470794
H        -2.56728027676595      -3.56570294319765       0.70895658966986
B         6.64849660490097      -1.41670553538390      -1.73808104386546
F         8.03995322497067      -1.70029711538107      -1.72239783853781
F         6.19768293286408      -1.19817939819039      -0.41004668524482
F         5.94707765379777      -2.51559003612776      -2.30125069598509
F         6.41089059706313      -0.25354634964487      -2.51765516774973
