33
C9H14F2N2O4S2 optimized with ForceField in AMS.
N         1.10653475457069      -0.01020345508567       0.53491761785994
C        -1.24926857185718       0.00632781037221      -0.15419281808109
C        -0.27581175173485      -0.02245219926995       1.02789891569283
C        -2.70714758188488       0.00530553534138       0.31664077449493
C        -3.66116734124723       0.04243614133956      -0.87427884968630
C         1.73673664831515       1.18367775417850       0.31046768263552
C         1.73811853188141      -1.19131752715024       0.25451542492145
C         3.03435664827431       1.21438863250580      -0.20561311744617
C         3.03580132743324      -1.19611949142683      -0.26239209135840
C         3.68506270604702       0.01565327902332      -0.49317282465537
H        -1.06740172620584      -0.88386310716917      -0.79573151548904
H        -1.05741324710760       0.91993629986559      -0.75881434981650
H        -0.45660832877904      -0.93148247550795       1.64463784015954
H        -0.45625939378515       0.85562199472725       1.68808722790083
H        -2.90927040920474      -0.91067760300846       0.91376987075293
H        -2.89584592887555       0.89357737036953       0.95819108914309
H        -4.71039932575549       0.06425502412724      -0.51500590172480
H        -3.47931854711701       0.95163014563740      -1.48608597098551
H        -3.52083859899999      -0.85938655015878      -1.50772928471869
H         1.23265913478527       2.12026603713653       0.51802881387151
H         1.23515383682761      -2.13725355102198       0.41772770738583
H         3.52682279365975       2.16068978103137      -0.38792146267364
H         3.52943043984516      -2.13214342745598      -0.48903564704433
H         4.68795295974495       0.02585470326309      -0.89960110758283
N        -8.41033289026152       0.48352498127096       0.50375772410749
S        -9.52429892450269       1.67892837531629       0.41511617721223
S        -7.39150778419463       0.36597023411850       1.77847352808809
F        -8.76235024934686       3.11199676054384       0.00497766508808
F        -8.26100021227034      -0.06535356862134       3.14242927477023
O       -10.54393111237760       1.33885968390039      -0.63406602320213
O       -10.20343112599427       1.85108020840649       1.74471418620507
O        -6.72495284257082       1.69028254356571       2.02384911754117
O        -6.35148764651131      -0.68052810116462       1.49816831913405
