37
C11H23NO2 optimized with ForceField in AMS.
N         0.26903749514961      -0.10955841593112      -0.19042996093628
C        -0.59410614121851       0.71113741294737      -1.10123907733152
C        -0.49169370674349      -1.33490465341301       0.22109663694909
C        -1.96378348549858       1.07890624127642      -0.50574681475578
C        -1.87465425077694      -1.03859597608220       0.83610435922794
C         0.68263439128609       0.66000256668144       1.03481413226960
C         1.46159319575707      -0.53643784952001      -1.00035557225458
C        -2.72296621938822      -0.17923132201783      -0.09629882246851
C         1.55367477825977       1.90415304218902       0.78241139745811
C         2.53717243455518      -1.33664726883808      -0.24155523317883
H        -0.79417526856896       0.15080034579823      -2.04492096467324
H        -0.08050871674039       1.64223237727379      -1.41974113067505
H         0.07737682915359      -1.92314593785839       0.97292060101166
H        -0.65417517684570      -2.00520957856715      -0.65458446160329
H        -2.55705749285722       1.62008368347578      -1.27441749940735
H        -1.85522226785334       1.76694613105970       0.35765155961205
H        -1.77243650784772      -0.54387132615572       1.82428404648934
H        -2.40225824297546      -2.00051945225603       1.01471762714065
H        -0.19742977808308       1.00661842580546       1.60979809221558
H         1.23004436168596      -0.00044787950966       1.74165341058228
H         1.13718030603886      -1.16702360424868      -1.86017368140838
H         1.95767834839353       0.34384771284707      -1.46527955305101
H        -3.66690819920876       0.10602228574361       0.41622617937246
H        -2.98803765955397      -0.76636293057055      -1.00344153666533
H         1.81068372695941       2.36082534320960       1.76136009057518
H         2.50935699216721       1.65126068552225       0.28314772987607
H         1.01014503939816       2.67351065243885       0.19948114107745
H         3.34019752839547      -1.61842361327916      -0.95490711913810
H         3.01213844143988      -0.73488678710690       0.55855144445748
H         2.13078024060006      -2.27661387226016       0.18084442771316
C         3.93565110684879       4.25150616838690       3.30491345943988
C         5.00984067335591       3.21062121965643       3.27455096139765
O         5.98470337053518       3.36248285822972       2.55639259928604
O         4.91626030745005       2.20901913602067       3.96548649686112
H         4.36374470022071       5.21982910485767       3.63955337603631
H         3.50700239384819       4.37394180046156       2.28816660164888
H         3.12376395036165       3.95717725923308       4.00410330174924
