42
C10H22F2N2O4S2 optimized with DFTB in AMS.
N        -0.92891390174962       0.49917427883841       0.30322409793700
C        -1.71990900398659       1.04897300816656      -0.84782275033185
C        -1.29926151188172      -0.94094674075278       0.51790461050945
C         0.52822316120755       0.59296249035989      -0.07244355603197
C        -3.22448296615406       0.89288532334198      -0.65660696956434
C        -2.79462655422540      -1.14594515572486       0.71475416423172
C        -3.59143206301777      -0.57678241008264      -0.45518242078925
C        -1.16917864376620       1.32084176750629       1.52099780650437
C         1.49663813236091      -0.02925581290301       0.93250839968083
C         2.93849525560756       0.27247680520049       0.50634791430511
C         3.93055165338642      -0.34740357848830       1.48813607998635
H        -1.40199651067078       0.50774241713223      -1.74379197763786
H        -1.44810932562619       2.10175275662539      -0.95603219272626
H        -0.75823295720993      -1.29520192060341       1.39415558863988
H        -0.95150131437151      -1.48752053983293      -0.36361155866204
H         0.74727332037698       1.65741564100076      -0.19694671692083
H         0.63821830386394       0.10112516494027      -1.04327637596639
H        -3.71105292783003       1.28389607884267      -1.55398199713454
H        -3.56797233942770       1.48652344800725       0.19414219259141
H        -3.11693507865866      -0.69002587214053       1.65444138354609
H        -2.96216495188621      -2.22242218713074       0.79945490342951
H        -4.66073904172896      -0.66311264655188      -0.25111161191334
H        -3.37020566447424      -1.13948749489957      -1.36837799556173
H        -2.21725821766937       1.27759199433250       1.80051677246413
H        -0.56868112103229       0.93085388586927       2.33657701461386
H        -0.88658691520338       2.35047274605788       1.31011100316390
H         1.35520459173794      -1.11162837093075       0.97538544473644
H         1.33011206425256       0.36957346298188       1.93444598484691
H         3.08800679761716       1.35681295248929       0.46871010325316
H         3.11533281937782      -0.12630943115824      -0.49854184711556
H         3.80880523935944      -1.43039643307639       1.52051191299589
H         3.77218373962524       0.05022259401808       2.49069346387567
H         4.95013939546233      -0.11943959979155       1.17828942833060
N        -2.40553752667322      -0.58367956230973       3.80818751369124
S        -2.58989609723553       0.78461860709472       4.60129493502198
S        -1.07681892839473      -1.42358686306093       3.98682626493300
F        -1.21480191927382       1.62879741169209       4.33160778041153
F        -0.97774580303227      -1.82712802899187       5.53539051510914
O        -3.58382224514861       1.52873949521585       3.89226182324769
O        -2.66354294051814       0.68158565047011       6.01705382092702
O         0.13806573567569      -0.69780419647811       3.72204753342787
O        -1.26253589106463      -2.65375185287562       3.27940640464423
