34
C8H18F6NP optimized with ForceField in AMS.
N         0.42607633561037       0.24152176310492       0.04461746950403
C        -0.53060495966360       1.28253589493017      -0.44838478599689
C        -0.08209644892466      -1.12595074060690      -0.28300028365818
C        -1.98698848801859       1.07208948232215       0.00548902916350
C        -1.52126312595053      -1.37953400214652       0.19779428284189
C         1.72343193021032       0.48489472688880      -0.66909430853071
C        -2.47274726791727      -0.32618651788506      -0.35655295457851
C         0.63187469300812       0.39448056483483       1.51099859013418
C         2.87863969674735      -0.46204031839238      -0.29793831011759
H        -0.53928697331357       1.29894810658720      -1.56343558986467
H        -0.20589238112604       2.29606025065777      -0.11978173109088
H         0.55691452512500      -1.90871950832238       0.18009915988581
H        -0.05573756011559      -1.29177885771947      -1.38466881044727
H        -2.63475392881620       1.81571970736492      -0.50635130589008
H        -2.09883528963530       1.24834309636226       1.09532118872257
H        -1.56714071631418      -1.39106945134478       1.30796749994689
H        -1.85187956410774      -2.38016006192822      -0.15565837202087
H         1.57795770742720       0.39976903137486      -1.77080923943567
H         2.07514101599774       1.52570818705862      -0.48216135687497
H        -3.48958103000802      -0.48665059276621       0.06338088380891
H        -2.53471894618716      -0.42485791513195      -1.46242176932041
H        -0.32160483166035       0.39021954302084       2.07274854312495
H         1.23343554249127      -0.44099738797860       1.92791106133342
H         1.14804091535328       1.35198451864790       1.74509027887773
H         3.77206994720118      -0.18990711968390      -0.89790973438584
H         3.16101144486184      -0.36708743458240       0.76964040175734
H         2.63344111322329      -1.51457188758136      -0.54070571954068
P         4.21147482835804      -4.02936393500352       1.48652042520290
F         4.49930610783697      -3.40745826240193      -0.08863127266773
F         2.71882240290570      -3.19833891844676       1.66732193659625
F         3.34112741814997      -5.32505440113031       0.76875924842248
F         4.03216783815555      -4.72615863409492       3.04656216424624
F         5.69228942549234      -4.89506087521416       1.38900966318185
F         4.99726515420327      -2.64898533769353       2.14137159287000
