61
C17H36F3NO3S optimized with ForceField in AMS.
N         0.00207948683607      -0.00143723823885       0.00059177845821
C         0.84486896362374      -1.03210201742282       0.70561621619048
C        -0.86961642027214       0.68304085454481       1.02171985982924
C        -0.82332198323325      -0.69651872275761      -1.05097585284584
C         0.85621742167765       1.03993250116355      -0.67437232816763
C         1.89483616697346      -0.48439205237001       1.70698882861242
C        -1.93574042444649       1.66166314331897       0.46316975832838
C        -1.89298187058544      -1.69126518954515      -0.53029170644057
C         1.94344316434212       0.50752178261601      -1.64493283063352
C         2.66481800732250      -1.63917119070070       2.36260299072423
C        -2.73979006381303       2.29143190632790       1.60953050374360
C        -2.64482930042075      -2.33442975614146      -1.70396882506992
C         2.72952818209817       1.67121243447274      -2.26573051558389
C         3.70123541776152      -1.12299851303372       3.35718617334391
C        -3.78831927892461       3.26817844869590       1.08342029843831
C        -3.69578190970184      -3.32706835396055      -1.21403692016242
C         3.79671052631650       1.17149679560443      -3.23517068828264
H         1.36995578624362      -1.67909507416488      -0.03203014571192
H         0.19663835200624      -1.71958233496110       1.29023601009568
H        -0.24369101938819       1.28123619797791       1.71804237388992
H        -1.38555491627508      -0.06737118696794       1.66146268114197
H        -0.16470336277897      -1.28452263434096      -1.72546164763182
H        -1.32763714630617       0.04718423441931      -1.70763867734003
H         1.34860670379081       1.69273235751526       0.08057326750254
H         0.21790879425833       1.71799423158745      -1.27731484619422
H         1.40011321777684       0.09266058082344       2.51411957095114
H         2.62629105131125       0.17385933225399       1.19613440694746
H        -2.64465132212573       1.13708252826177      -0.20873716232502
H        -1.45195131860493       2.48402739048461      -0.10183757606403
H        -2.63331839726050      -1.17770637765372       0.11578274454730
H        -1.41654836315191      -2.50563605191279       0.05200564915424
H         1.47842763970222      -0.06396580726202      -2.47339777144426
H         2.66100225907622      -0.15165322901953      -1.11631501553316
H         3.18275944433161      -2.23719772424854       1.58140594336045
H         1.95521056670873      -2.30485276647413       2.90136022984452
H        -2.05392544873567       2.83952340345226       2.29222450641868
H        -3.25137093340486       1.49450265105559       2.19223864887585
H        -1.92601737035173      -2.87242651464138      -2.36035150157336
H        -3.14738974394140      -1.54619703829123      -2.30590031143901
H         3.21880216483819       2.26670792660077      -1.46440010413724
H         2.03679676749791       2.33498239959210      -2.82403337850398
H         3.20619632393717      -0.54080205895701       4.16354257675419
H         4.44372817675487      -0.47822394822850       2.84077539266318
H         4.23472985173233      -1.98166378065350       3.81678557013898
H        -4.50869052227618       2.74155879599016       0.42204624238283
H        -3.30089714689810       4.08981031783893       0.51625336631135
H        -4.34625773840630       3.70905427170531       1.93646192578264
H        -4.44693867872643      -2.81136135235523      -0.57882122348742
H        -3.21558567739268      -4.14034354901781      -0.62901760555526
H        -4.21617693263467      -3.77757633429540      -2.08546334994959
H         3.32716953624721       0.59811066315019      -4.06286627151299
H         4.52722979005507       0.52402578424113      -2.70581439431201
H         4.33805226824597       2.03868291552408      -3.66929143194111
S        -1.21353694942901       6.06834649773792      -3.30711809753579
O        -2.62857366923551       5.57587034233002      -2.97060321731901
O        -0.86190183048166       6.95761834420798      -2.10564141148066
O        -1.45421861298869       7.08227582856851      -4.43480184360876
C        -0.01201418112741       4.76141129220302      -3.67376464953036
F        -0.43510763599711       4.03575614729258      -4.77101333655467
F         0.08907584015504       3.92694692958782      -2.57991836532945
F         1.22122453049505       5.32502908677015      -3.94052140403017
