50
C14H28F3NO3S optimized with DFTB in AMS.
N        -0.29691733112013      -0.27917285705390       0.51878836123949
C        -1.66688411119511       0.12046624053222       0.06015274393749
C        -0.23725068101688      -1.78490912017077       0.56733635362685
C         0.67738540575562       0.20748872429081      -0.52635347057141
C         0.03744878273564       0.29147754376134       1.86868688616753
C        -2.77132583578999      -0.42639382846830       0.95795469445287
C        -1.31745297827178      -2.40107075894928       1.44433107205694
C        -2.71142895712020      -1.95240422556131       1.01441681801964
C         2.15089939803840       0.05041715010393      -0.15649717042834
C        -0.03798797605331       1.80635772708297       1.95897783728042
C         3.02558823503776       0.32316853401633      -1.38466703441596
C         4.50773537649160       0.20850958542543      -1.01367639869525
C         5.40654725025499       0.43936436402768      -2.23171931991124
C         6.88423603958750       0.37047897754905      -1.84970914202488
H        -1.78571154101264      -0.27137848296857      -0.95435159118361
H        -1.70545434881493       1.21049481045329       0.01623803004339
H         0.74707351908591      -2.07005908094881       0.94206765545179
H        -0.34513244461461      -2.13365935125601      -0.46382258431469
H         0.44794404716975       1.25962198598751      -0.71611945584057
H         0.45735790949470      -0.35575341425358      -1.43766278922800
H        -0.63991903944401      -0.15620120504800       2.59463250605457
H         1.04255228613012      -0.04901879398171       2.10997290850127
H        -3.72717297707886      -0.10285981622630       0.53708490904481
H        -2.69119966277079      -0.00584474174364       1.96333234039697
H        -1.13878370719205      -2.15735642313662       2.49366038887909
H        -1.22809875144231      -3.48557235630512       1.34358327483294
H        -3.45677483531894      -2.32322670192890       1.72154909774919
H        -2.94592385431845      -2.36158038914878       0.02580376687334
H         2.41983538168419       0.75314792963423       0.63522421353227
H         2.35420774546395      -0.95829925277031       0.20632119459625
H         0.60966624455373       2.29380741471210       1.23239727368248
H        -1.05495215155987       2.17613353249938       1.83396240811550
H         0.30366666869107       2.08439548505823       2.95599087605907
H         2.81747407000585       1.32650433771503      -1.77347760406874
H         2.78535537058491      -0.39870381712197      -2.17290105984299
H         4.70020659395961      -0.78573384051915      -0.59853020327530
H         4.74375642812703       0.94496331273660      -0.23841305952843
H         5.19024455328075      -0.31805431729253      -2.99291371882729
H         5.18851059410496       1.42134467154172      -2.66632546072279
H         7.12244630410927      -0.60138988013347      -1.41622450063863
H         7.50636844489916       0.51951448885462      -2.73254545819153
H         7.12564872563778       1.14397157490984      -1.11945717982789
S         2.29720384467153      -2.42681157489379       3.15286443508170
O         0.97007117759287      -1.89902068953022       3.45817200970452
O         2.56264175132992      -2.50210358230636       1.71905297757533
O         2.70203869770615      -3.57032014085831       3.92106994515978
C         3.41570509326711      -1.04255651588569       3.68059533339517
F         3.31195829513394      -0.77016908652508       4.97378435903454
F         3.06852179776037       0.07199822195751       3.00444048862842
F         4.68609904508884      -1.29665903156335       3.40058664926388
