55
C17H32F3NO2 optimized with ADF in AMS.
N        -0.80261952513340       0.77296626616980      -0.00339497555397
C        -1.43768230542713       1.85268225851419       0.84558800350040
C        -1.69709157472613       0.50043474489497      -1.19090984633351
C         0.54213127620013       1.27011250839336      -0.55027983791213
C        -0.57644274539988      -0.48398888323737       0.84387444209393
C        -2.87923871999109       1.55852230293267       1.23670406651492
C        -3.10896662407726       0.11476700350782      -0.78909394025042
C        -3.75140985659323       1.23314491548452       0.02793520504913
C         1.43803129062568       1.98082282271642       0.44813944327800
C        -0.31448475855930      -1.75623851670526       0.05975928925953
C         2.78714712647064       2.27893491597661      -0.21678409478171
C         0.02938905402437      -2.88406862981406       1.04056061264595
C         3.79863099328569       2.84397376360653       0.77809738456363
C         0.60197791341999      -4.10574761638434       0.32431525620508
C         5.17122277122261       3.05801279745012       0.14601754748547
C         0.97031553507534      -5.22389022492304       1.29574690400363
H        -1.38044469474810       2.77682439551247       0.24745100824362
H        -0.80110558201431       1.97088600466723       1.73223635156670
H        -1.19790576604771      -0.26757714903268      -1.79532588662410
H        -1.71734453891493       1.43650802253129      -1.77172318162823
H         0.29027730438874       1.93001380529067      -1.39640175959712
H         1.07208268197958       0.37235769562791      -0.91020128877637
H        -1.45410603389761      -0.58988948859702       1.49473971910852
H         0.32298582663209      -0.27838426549049       1.45217381184218
H        -3.25704362768676       2.44752569044894       1.76844378818500
H        -2.91723732412460       0.72845765390637       1.96078283285093
H        -3.10321422143682      -0.82723805482437      -0.21647852786420
H        -3.67952730574382      -0.07738828665579      -1.71256155292742
H        -3.85603243703934       2.13247772635689      -0.60656568237199
H        -4.76420245804216       0.94743835750223       0.35254507718016
H         0.99375193594244       2.92552195725067       0.80511931800443
H         1.63195706631485       1.31678883103135       1.30708368173293
H        -1.17673390237346      -2.05780848717878      -0.55956031851180
H         0.57190490958642      -1.60526458188335      -0.57955469996223
H         2.65072372672296       2.98723881187739      -1.05690261334378
H         3.18295906879568       1.34046605234335      -0.64066340214978
H         0.78460220345413      -2.50428368315879       1.75036293321015
H        -0.86567244086348      -3.17312018377700       1.62449627165963
H         3.89074459799285       2.13619836190410       1.62039545343374
H         3.42013747642127       3.79701527177245       1.19476738307291
H         1.50019459656260      -3.78546834072874      -0.23255516062820
H        -0.12332322433943      -4.48094991251161      -0.42295001067861
H         5.88511399588488       3.46779151614876       0.87716854612718
H         5.57624996720800       2.10189079279499      -0.22170885286012
H         5.11550189712971       3.75698540145905      -0.70515591789884
H         1.40346179998206      -6.08634919036902       0.76631691314806
H         1.71234366499737      -4.86804605814999       2.02868079646359
H         0.08594720165062      -5.57543259694153       1.85258018397031
C         3.06787387936559      -1.00140000976717       0.80158580431996
O         2.41644146730142      -0.69692282409579       1.83374870447994
O         2.72676731792757      -1.04586966600274      -0.40600793937458
C         4.56914047785105      -1.34525610095903       1.09224982136209
F         5.24010401875101      -1.83624012607439       0.01143243385984
F         4.69875214058880      -2.26984819043345       2.09371658635956
F         5.25050343592381      -0.21777822427735       1.49782062504801
