41
C11H22F3NO3S optimized with DFTB in AMS.
N         0.73810118382899      -0.02204338266995      -0.66817656712716
C        -0.61496766840683       0.44397240361865      -1.11548233051587
C         0.60733133968266      -0.61035135829095       0.71342364513311
C         1.16027650481260      -1.11333884635315      -1.61963402766828
C        -1.23758143309340       1.45516924026221      -0.15934384239244
C        -0.01840099086707       0.34634507702113       1.71845150334930
C         1.74303172956606       1.09577739232137      -0.65193861700727
C        -1.37498694402109       0.85468382791392       1.23875318879049
C         2.56518133806929      -1.67255061600176      -1.39902282008867
C         1.96117815951642       1.78689164893468      -1.98777122250103
C         2.81212373259145      -2.80876699460325      -2.38996031014912
H        -1.24988820233437      -0.44480739462092      -1.17728008070342
H        -0.51310410996472       0.86641749990932      -2.11684087554800
H         1.60808793150345      -0.89127699363978       1.04695097020639
H        -0.00873921685273      -1.50868727222506       0.61247642234941
H         1.07410981128793      -0.70650684442795      -2.63093604562639
H         0.42356897132168      -1.91524123425108      -1.51466786191748
H        -2.22271156137883       1.71733955785125      -0.55487781102754
H        -0.63943218902390       2.36896624782630      -0.12373812569961
H         0.65731523425238       1.18038532087512       1.91842322298912
H        -0.13741638515806      -0.20732640381774       2.65317486335938
H         1.41709226936337       1.82289136354996       0.09119910963833
H         2.67961497500222       0.66978032337264      -0.29639767700193
H        -1.75386758059664       1.61225245999879       1.92853300389026
H        -2.09418907804190       0.02893595007495       1.21017021760181
H         3.31825309478882      -0.89720781438897      -1.55155999496955
H         2.67618240402884      -2.04876581317931      -0.38092128872459
H         2.73860008054080       2.53558044629090      -1.83518789797755
H         2.30513477490015       1.09635856221129      -2.75571811842462
H         1.06509054151726       2.29525934917691      -2.34172879326694
H         3.81361823746443      -3.20812366856286      -2.23679445652246
H         2.08968498053296      -3.61260353344309      -2.24171949067108
H         2.73213066940033      -2.45122321600536      -3.41775243228087
S         3.95264708254444       0.09285715817437       2.11640471191865
O         3.55114534780911      -1.17209874058431       1.50654372014921
O         4.52801410456306      -0.00354746435280       3.42827418727689
O         2.95834236797301       1.14716004741465       1.93822852522325
C         5.33091882363127       0.64471108346504       1.00015953751934
F         4.90241962539346       0.57226597907610      -0.27739066669872
F         6.40475888218850      -0.12337996578393       1.10427584618953
F         5.68552085586458       1.90221558746266       1.22628134542613
