57
C15H28F6N2O4S2 optimized with DFTB in AMS.
N        -1.08592545573957       0.29058448886752       0.26117607431327
C        -1.91868525835013       0.39835613391583      -0.98712035565894
C        -1.45063384288262       1.41304194896933       1.19665473196331
C         0.34754792755196       0.47549154465679      -0.16385000559743
C        -1.28816742002214      -1.03300887798305       0.95278752421419
C        -3.41591579236455       0.45984141719305      -0.71663471552256
C        -2.94177462119935       1.50396871599070       1.49158101349538
C        -3.75524108651426       1.62537757804643       0.20715381614308
C         1.38520097559497       0.25703049582278       0.93492805484886
C        -0.91074006040194      -2.25733802255114       0.12087927147661
C         2.77995391589546       0.58961171513787       0.38872417080701
C        -0.78900104427735      -3.47963348139685       1.04162931785592
C         3.85100506980512       0.36960606035612       1.45459940919545
C        -0.54287496279916      -4.74800406654398       0.22949561775842
H        -1.67614822759163      -0.46064116610429      -1.61504456292902
H        -1.59491855249779       1.30990417055949      -1.49922760937519
H        -1.10625347174994       2.33872341493070       0.72537638513510
H        -0.89454596016994       1.25981737020059       2.12311588371017
H         0.42849899509963       1.49477352954985      -0.55165277316793
H         0.53338971646515      -0.21409961793727      -0.99023639594331
H        -2.34345213510408      -1.09923984877746       1.22478603706273
H        -0.70530702496241      -0.99709294460148       1.87516310264368
H        -3.76630773336786      -0.47728521984445      -0.28300491067220
H        -3.91185516710330       0.58678346612489      -1.68245474324687
H        -3.09356306324866       2.38574048908130       2.11909118505673
H        -3.27569828758488       0.63525350743307       2.05953748450396
H        -3.53473126327070       2.57552447047553      -0.29173283823451
H        -4.81967625764021       1.60222909688544       0.44898926676607
H         1.37429350078931      -0.78263871007550       1.26984758231321
H         1.17491985852084       0.89479768618397       1.79711693356129
H         0.03824537743724      -2.11222941887953      -0.40256606972100
H        -1.68693043789240      -2.44847339143677      -0.62445437511810
H         2.80194473368461       1.63249298563610       0.05555633243806
H         2.98995778181986      -0.04485828068923      -0.47851005727000
H        -1.70946097648050      -3.59504452210608       1.61749915986159
H         0.03507762597192      -3.32175144284259       1.74578761133685
H         3.85272352793802      -0.66933872458594       1.78549163042841
H         3.66836811236768       1.00998412610832       2.31808343088756
H         4.83291583948077       0.60682092644520       1.04624226261659
H         0.36967447503830      -4.65937393703441      -0.36272758219217
H        -1.38037639119474      -4.93353624213008      -0.44335612876897
H        -0.44208535837713      -5.60006637414326       0.90111565265900
N        -4.32575893388459      -1.48493806917678       1.88646249876702
S        -4.50939613635631      -2.90238903781713       1.14612483965932
S        -4.66643546342540      -1.43170754123150       3.46020123247407
C        -6.34684387208484      -3.21259036627792       0.91733133873898
C        -3.23173432299147      -2.25740409294451       4.34910716108776
O        -4.01615033671606      -2.68910630981937      -0.20152336220162
O        -3.99814535403597      -4.04200831110522       1.87018914893532
O        -5.84824885836124      -2.14638175425466       3.85869310871632
O        -4.52207299234388      -0.04698434082911       3.84048616667787
F        -6.53043621380248      -3.80267099287806      -0.25402027206021
F        -6.99352979683796      -2.05780926906514       0.91512670308793
F        -6.82267766634644      -3.98604149663434       1.86743726753954
F        -3.02845903744578      -1.64989835720171       5.50722508341431
F        -2.12454618279162      -2.10312865689309       3.60791920601905
F        -3.42374025064966      -3.53912003527893       4.56391243001001
