31
C11H17NO2 optimized with ForceField in AMS.
N         1.08509817070040       0.00271515352151       0.43184216679716
C        -1.30371270716791      -0.00467610050658      -0.15007920054199
C        -0.27496151918530      -0.00831841647017       0.98492925883091
C        -2.73501254597702      -0.01150688972029       0.39690636993724
C        -3.75563903768180       0.00075482127058      -0.73737923846130
C         1.72600840593461       1.19383268413008       0.22485688721236
C         1.69055693014405      -1.17768123840812       0.09646158874825
C         3.00716527887519       1.22243398488565      -0.33117790395690
C         2.97180660852995      -1.18455954222632      -0.46010342972391
C         3.63168800636331       0.02442268555760      -0.67393018556600
H        -1.14712492214135      -0.90256941710555      -0.78751685715656
H        -1.15059564475860       0.90249746259228      -0.77526430692128
H        -0.42005400083270      -0.90715430237146       1.62543624254278
H        -0.43389495602360       0.88003045729926       1.63681149337774
H        -2.89543324025148      -0.92100294768678       1.01607815640191
H        -2.89697472806334       0.88372392015630       1.03617805332266
H        -4.78217205211847      -0.00597826682390      -0.31421935662156
H        -3.63264667331909       0.91465526255378      -1.35704177876413
H        -3.62976821709442      -0.89708495070994      -1.37949078700933
H         1.24463478242433       2.13032856979463       0.48052822471769
H         1.18135521488248      -2.12128623550672       0.25319134570553
H         3.51058973217040       2.16649929129616      -0.49489518718112
H         3.44853951602923      -2.12018531487908      -0.72236006894427
H         4.62564142193930       0.03280497138908      -1.10214541006293
C         5.37294379780052      -0.99722621606632       2.77420158155780
C         5.63432563423273       0.46801944733594       2.92678879784254
O         6.32107705205757       0.87098797972512       3.85146821595240
O         5.16434855000155       1.26412605288070       2.12993266292064
H         6.33409701908560      -1.53430953225440       2.63180642726797
H         4.87005360935459      -1.38329579862416       3.68556621743202
H         4.72087233078926      -1.19121201832889       1.89702569524367
