40
C12H26ClN optimized with DFTB in AMS.
N        -1.63987720264434      -0.25747527609595      -0.17383276637396
C        -1.91765028988952       1.12467398680598       0.34557683409701
C        -2.63911155444409      -1.22204020770810       0.39357453327458
C        -0.28524184029103      -0.71378376661820       0.30870453021441
C        -3.34418912290268       1.57101913930603       0.06579014805121
C        -4.08603691213567      -0.81379047816136       0.13641092369624
C        -4.35781429914179       0.59583349113486       0.65921611568547
C        -1.67346965095441      -0.28732059445929      -1.66374970247040
C         0.90042933999213       0.09815525072955      -0.20449072079141
C         2.19717257484176      -0.47404287563669       0.37758465345855
C         3.40543743086286       0.32128501768775      -0.12663990007788
C         4.71396773014593      -0.23656844080014       0.44047900909546
C         5.91905813901299       0.55510899929572      -0.06468576623243
H        -1.22064132957297       1.80421248765806      -0.15915945896810
H        -1.72332995580414       1.10842992732914       1.42162628227789
H        -2.45801085893412      -1.27345281754632       1.47122896026181
H        -2.43313401339077      -2.20153645289260      -0.04571568702192
H        -0.31503867187172      -0.67975156146679       1.40211829448048
H        -0.18292215315490      -1.75928335688402       0.00067104215589
H        -3.47144588728086       2.55744262341255       0.51929297474323
H        -3.50177677420604       1.67873363897296      -1.01002295376323
H        -4.31862062385735      -0.87100877321780      -0.93016383527771
H        -4.72576592000863      -1.53511848997605       0.65248941422525
H        -4.28133741035880       0.60252912710894       1.75193408230317
H        -5.37208566868524       0.89751121989349       0.38717631877382
H        -1.07422717494017       0.54896704183967      -2.03943767198088
H        -1.27310023285559      -1.24030888234386      -2.00483285120715
H        -2.69748478822279      -0.17431667085289      -2.00751887852529
H         0.94718089355600       0.06204106039296      -1.29421541784976
H         0.80470619856114       1.14526482183663       0.08668611108255
H         2.15942168452588      -0.43210772370973       1.47226050658764
H         2.30011993592421      -1.52597575715463       0.08663022477546
H         3.29589634723726       1.37012097252352       0.16704830179348
H         3.43352927757112       0.28235581841337      -1.22036512826343
H         4.82022437754026      -1.28742561904705       0.14843174356400
H         4.68440650778305      -0.19568523809958       1.53511808900657
H         5.97714264781787       0.50881362435882      -1.15304831406556
H         5.84078012109206       1.60134164944843       0.23407439744907
H         6.83919532932171       0.14268354084011       0.35058163778461
Cl       -0.23527174223865       2.56472831248251      -1.95950575746872
