42
C10H22F2N2O4S2 optimized with ForceField in AMS.
N        -1.37446959763292       0.24010504064006      -0.02658304532591
C        -1.73085320134986      -1.04165809213772      -0.67385662004788
C        -2.44901539788558       0.45134267214462       0.97440758514312
C        -0.04914038144323       0.17114301007650       0.65989754106129
C        -3.24777918408513      -1.14854168566989      -0.66758769512720
C        -3.70583784608453      -0.25390531269189       0.47024703893184
C        -1.40395246251012       1.34759193019663      -1.01892582660741
C         1.14369269233608      -0.08456025697386      -0.28788270202743
C         2.44017284737689      -0.28449695371089       0.50657355397494
C         3.63514849218433      -0.48373205001326      -0.43302553375613
C         4.92038186547759      -0.72601388716303       0.35222787064826
H        -1.32619601186191      -1.90089174751000      -0.09477712231011
H        -1.33477175130314      -1.12384242837252      -1.71125235707817
H        -2.64905100886233       1.53194342217483       1.16084437605616
H        -2.18372447490453       0.00200288318756       1.95969039031452
H        -0.05926424239201      -0.64065076560293       1.42372122296959
H         0.13692308597072       1.12088207064988       1.21214920641271
H        -3.57554323665971      -2.20030958161299      -0.51624737190008
H        -3.65571324509026      -0.77452304110844      -1.63237421904927
H        -4.44815507116191       0.48836426290711       0.10351385460428
H        -4.16875746364042      -0.85744534487920       1.28206367338829
H        -0.76181506920843       1.12636557725373      -1.89835996867236
H        -2.43309366788896       1.51589075502401      -1.40757098494450
H        -1.05340690774132       2.29968243089121      -0.56210448997795
H         0.95852722971180      -0.99187617421820      -0.90111009159096
H         1.27976428886314       0.78503968400661      -0.96463078562586
H         2.33469228671830      -1.17524329786270       1.16459853468759
H         2.62264937743399       0.60746061791523       1.14602194977289
H         3.76598390391850       0.41905002800572      -1.06844910278964
H         3.45168754825459      -1.35435701179881      -1.09850687998459
H         5.14139059014299       0.14296975178436       1.00797861026290
H         5.76624382705474      -0.86264432178393      -0.35397183842718
H         4.82575174860615      -1.64157773134994       0.97433355355440
N        -0.11415948798514      -4.50686047110089      -0.42778886272766
S        -0.43192050165951      -4.50560621780913       1.17648498518896
S         1.39407403313363      -4.80106432160907      -0.98687333218196
F         0.54772132232334      -3.38442320434663       1.94192108072732
F         1.93897426513650      -6.26869534564450      -0.39338128658982
O        -1.87531466900145      -4.15634605718220       1.40382017126386
O        -0.14893835341995      -5.86641700531812       1.74767396832096
O         2.32426880881041      -3.71797881424074      -0.52031748067553
O         1.37661757191863      -4.83630725264658      -2.48861526506625
