52
C16H33NO2 optimized with ADF in AMS.
N         0.50899111830009       1.25177967004837       0.08706409710979
C         1.13342109042961       1.91729148728883       1.30064224316011
C        -0.56119116074447       2.22878670191231      -0.33343559474848
C         1.53025325697470       1.05956699458042      -1.01307217939467
C        -0.11470900720650      -0.06871864418918       0.53515357708523
C        -0.05351565738499       2.51764668639560       2.04960945317296
C        -1.14741742896170       2.77006554030857       0.97540889392994
C         2.67977588199971       0.15925041233434      -0.60277997187628
C        -0.55688147549899      -0.99198794967042      -0.58225815015596
C         3.40641899500193      -0.44629690684199      -1.80328912148286
C        -1.06493324217798      -2.29960266187049       0.03420715969816
C         4.44339390753759      -1.47496031046570      -1.34597970950768
C        -1.54251750751608      -3.29455020275452      -1.02004632608320
C         5.09244758120864      -2.22079319350394      -2.50774688788756
C        -1.95746834553984      -4.63228295653112      -0.41234179168427
H         1.79865441725140       2.70088733621800       0.90476038291727
H         1.69509771083719       1.14056232947195       1.86175702664167
H        -1.27968418796212       1.71740941128288      -0.98727860550506
H        -0.05529546262019       3.02344926118074      -0.90292561519444
H         1.86231424606258       2.07574125875333      -1.28383795852623
H         0.98131116051665       0.64660143586350      -1.87270399386982
H        -0.96754371747976       0.20758295105522       1.17290587232472
H         0.64774785357088      -0.57005955610431       1.15768609986698
H         0.24676503634768       3.44306405588363       2.56133707415709
H        -0.41047933176416       1.81576042085447       2.81776215918872
H        -2.08306860371393       2.25374596928013       1.23569589460420
H        -1.38505147735683       3.83796998247352       0.86437125870590
H         2.31047744146258      -0.68161511486011       0.01695817073279
H         3.38990573094086       0.71471794011225       0.03307377698204
H         0.30332282870374      -1.24588016564790      -1.22224094537657
H        -1.33838494769607      -0.54040365051542      -1.22222769363715
H         3.88872361741794       0.33282088847429      -2.42463270727744
H         2.66675139482067      -0.95371869441675      -2.45264974462644
H        -1.88805426345537      -2.08954963418860       0.74301883316474
H        -0.22983343581655      -2.73039274107453       0.61477044530919
H         3.94278115940079      -2.18425079192871      -0.66379645668424
H         5.21822776009528      -0.96359977363828      -0.74645343068800
H        -0.72919964738601      -3.46016175570960      -1.74998842704745
H        -2.38825322319384      -2.85914655604041      -1.58478621806712
H         5.82263772450623      -2.96323319675871      -2.14988402012442
H         4.33329078467839      -2.75935222728023      -3.09830129726549
H         5.61804859909259      -1.52936168297141      -3.18641051784415
H        -2.31084320506378      -5.33537169752369      -1.18255538517350
H        -1.10781957838456      -5.09836373272779       0.11120204699591
H        -2.76874178455881      -4.49614595941272       0.32075054093670
C         3.17328080109354      -2.66766082685390       3.25978189766883
C         2.40837592771465      -1.74494456099537       2.30339802141942
O         2.02511540126440      -2.26222035537171       1.20768647746079
O         2.21242608468090      -0.54455494113283       2.67626659131752
H         2.52213515200544      -3.50370866310957       3.55853011349097
H         4.03520123017431      -3.10965668608579       2.73710466078322
H         3.51400457079161      -2.13225429949667       4.15571727620364
