42
C10H22F2N2O4S2 optimized with ForceField in AMS.
N        -0.53236880078545      -0.00892644052815      -0.00132186431384
C        -1.46563283178543      -0.59719046506323      -1.01108066691637
C        -1.41941416034429       0.60635665759932       1.03387337264551
C        -2.86555203666292      -0.09621247636242      -0.71366374557691
C        -2.84436336795997       0.16106394041900       0.76597262781697
C         0.30761427092862       1.04746554488022      -0.65458757670906
C         0.29537296431013      -1.09026831211640       0.62686418835557
C         1.34933824434228       1.70529500277767       0.28184003225067
C         1.28950646935634      -1.77646792546811      -0.34153452885922
C         2.05076554796658       2.86713274472683      -0.41393118361651
C         1.95831206179483      -2.97843824013015       0.31873966964146
H        -1.19241992223252      -0.34907288229383      -2.06201191994555
H        -1.50303639449534      -1.70964649265522      -0.95288927677548
H        -1.13174803955831       0.33975172614283       2.07632558565320
H        -1.41638680015191       1.71981895688965       0.98453483248264
H        -3.05058062054408       0.85490719401062      -1.26056899379173
H        -3.64236590521081      -0.84397072792208      -0.98570734739957
H        -3.05533483562244      -0.78225090320471       1.31696661834533
H        -3.58529172777243       0.93868030194675       1.05402527253161
H         0.84510743762322       0.62992649982519      -1.53482526470560
H        -0.35244676046171       1.84678078262288      -1.06573903741866
H         0.86981959529362      -0.69073874152045       1.49196226504907
H        -0.37602318187440      -1.86983466730207       1.05698272625987
H         0.86888088151406       2.08585631418540       1.20705956210494
H         2.12870644419666       0.97202692101841       0.57403414228660
H         2.09096907553441      -1.06980633481475      -0.64031960702588
H         0.77336622117585      -2.12174960790097      -1.26119384004910
H         2.55080135501461       2.51671268896667      -1.34204129940312
H         1.32133708668089       3.66622882962483      -0.66518404651068
H         2.82158287391741       3.28873030431038       0.26241172137132
H         2.52004136007487      -2.65804613905867       1.22222330035364
H         1.19800181090717      -3.73542339102734       0.60629813798183
H         2.67037794411161      -3.44461167707402      -0.39487595922761
N         5.69131307452582       6.04549811277878       3.49940211471892
S         4.80809636414980       6.28565478765988       2.14321457492058
S         6.28899106798741       7.30279044018797       4.35850256437026
F         5.82774694367335       6.71064472905069       0.88559007490809
F         5.03133059634299       8.09663701970475       5.12671597918538
O         4.08432413508976       5.01925359283052       1.78781292993054
O         3.81562709625238       7.39296819463342       2.36221275123245
O         6.98352166809491       8.26703048465790       3.43835473428965
O         7.25905438420241       6.79379238989201       5.38641551155881
