38
C10H22BF4N optimized with DFTB in AMS.
N        -1.10497968991793       0.33933926262353       0.33868933168534
C        -2.23923613390288       1.25734879906203      -0.02687939939920
C        -1.46223150044516      -1.07050246777171      -0.03516003442464
C         0.08361097226576       0.80662751097117      -0.46523652586249
C        -3.56751260278993       0.84303554590878       0.59077370912530
C        -2.78450411174212      -1.52445603410584       0.57099084902271
C        -3.92210645763629      -0.58433852301547       0.18007881127634
C        -0.78817231594316       0.44267779503315       1.78533957319681
C         1.35991440354799      -0.01080652224340      -0.28944235144294
C         2.32714990632751       0.35226885706392      -1.42469081345976
C         3.64004006714361      -0.41586346894876      -1.29875024174911
H        -2.31824518836865       1.23427481628701      -1.11706029478748
H        -1.95616135489018       2.26307749311351       0.29257465915269
H        -0.65536873890779      -1.72019597772672       0.30792859130186
H        -1.51437276446414      -1.10203768672340      -1.12610847856254
H         0.26141037715773       1.84777341127324      -0.18302404319036
H        -0.22452075638199       0.77728699513622      -1.51132347828348
H        -4.32643657762224       1.53529115277497       0.21734763262222
H        -3.54221006599581       0.93422549980620       1.68163565036473
H        -2.70743760266236      -1.59663511775357       1.66124905837083
H        -2.98516172181466      -2.52749788100813       0.18570951063499
H        -4.84761981613640      -0.89546894648112       0.67031377258948
H        -4.06823532447736      -0.62337518294748      -0.90260300360117
H        -1.66271848788296       0.18443162805904       2.37665605629962
H         0.02293521110925      -0.24291840903118       2.02114091995042
H        -0.48577680950138       1.46488926468740       2.00673255276148
H         1.14853186898613      -1.08090114745891      -0.34649295165724
H         1.82593992758655       0.19388283603257       0.68002694180124
H         2.52682550949024       1.42855857569624      -1.40477135640910
H         1.84987712904502       0.11270440237896      -2.37986677025562
H         3.45930529284350      -1.49075721003872      -1.33900566840009
H         4.13555023269567      -0.18129990705406      -0.35514590306892
H         4.30607070121650      -0.14521705746527      -2.11776927331988
B        -1.68238581393524       0.10901560802333      -3.37698962264305
F        -2.79838972208190      -0.33323757145337      -2.61648196356638
F        -1.89727618742310      -0.00714423611067      -4.71484538296143
F        -0.56599489856647      -0.66015646667915      -2.94790887222272
F        -1.43427512622531       1.44982943578568      -2.98774008788845
