22
C6H14ClN optimized with ForceField in AMS.
N         0.57891023544307       0.01183476515942      -0.00518567329025
C        -0.28803435124195       1.09289315833028      -0.54943312247063
C        -0.33684792466259      -1.03720123086533       0.51943839951234
C        -1.71909337883593       0.78876642415094      -0.14111797782676
C        -1.73877028705918      -0.70712420099145       0.03982443579240
C         1.43958115849588       0.53657442625867       1.08127268093532
C         1.44130483969714      -0.54513354792178      -1.07392580277216
H        -0.25412594841648       1.13335138951465      -1.66370282561620
H         0.00126322326789       2.10700149717052      -0.18855615508458
H        -0.35627153750468      -1.05090327278049       1.63419019497387
H        -0.05502763261580      -2.06549546166273       0.19363097409880
H        -2.45014675011655       1.11804983736195      -0.91168128145005
H        -1.94830228836456       1.28610867140655       0.82743139430445
H        -2.51460201051379      -1.02219062953340       0.77179646413251
H        -1.92670221337116      -1.20015585670745      -0.93951127944639
H         2.14539983673930       1.30504731090976       0.69362217459807
H         0.82526338396146       1.00959729060141       1.88011291389121
H         2.03595477005212      -0.28134411398275       1.54407600783597
H         0.82526752045183      -0.99566976275079      -1.88427854035267
H         2.07545912172374       0.25048016681765      -1.52506959803808
H         2.11190543358652      -1.33790970233670      -0.67241761931229
Cl        0.50720186148370      -3.46175386384894       3.35863494158512
