44
C14H26N2O2 optimized with DFTB in AMS.
N         0.40298821929882       2.50600261398638       1.13671432940229
N        -1.45702931492127       1.93799726215826       0.25463972544333
C         1.81160047024938       2.84695097794911       1.28814730506591
C         2.61023303657860       1.62031061874693       1.73835797756513
C        -2.42750381077483       1.54700052834334      -0.75739473366788
C         2.54303027254139       0.49441854416733       0.70265045528146
C        -2.38911148511411       0.03216506876532      -0.98600318266330
C        -0.20260934550761       2.30343593638770      -0.03530969964687
C        -0.46389776059268       2.25999095393608       2.17221394741409
C        -1.64592438306708       1.89635591957743       1.61242417865088
C         3.38554028918607      -0.71146475967951       1.12457503366118
C        -1.03261720995685      -0.43458962039189      -1.52362079572891
C         3.28842304739667      -1.83335445259231       0.09178806359276
C        -1.05067393308262      -1.92259269670240      -1.86373596938869
H         1.89660396911122       3.65143469165507       2.02447179202074
H         2.16444271556457       3.19560602963922       0.31359469930399
H         3.64909943818038       1.93347601527746       1.87714585419736
H         2.23039258664481       1.26806713330730       2.70373942874866
H        -3.42135449587045       1.85804845080418      -0.42362829574160
H        -2.17289298534209       2.07595230909347      -1.68001476141810
H         2.89533862435623       0.87386345592385      -0.26076068576017
H         1.50108949723245       0.18071060228255       0.57753813152987
H        -3.17630350654929      -0.21282305167941      -1.70562918115713
H        -2.61791850042105      -0.48226455138622      -0.04677489033332
H         0.18493751129816       2.34031076927516      -1.18709516791859
H        -0.17682002709854       2.36968101443338       3.20359227800240
H        -2.58765908409300       1.62746694645510       2.05854179789638
H         3.04118840658600      -1.08025706071712       2.09765637444551
H         4.43188424089201      -0.40688532295778       1.23389810827709
H        -0.77267855847127       0.14631361357850      -2.41376591128874
H        -0.26116758521634      -0.24735545256481      -0.77035691891815
H         3.64372327440600      -1.48767289518092      -0.87964457017826
H         2.25408950401947      -2.16412688997183      -0.01620248686221
H         3.89494305234106      -2.68478816629886       0.40196843633896
H        -1.29156314080377      -2.51646899435922      -0.98042250651436
H        -0.07115431284092      -2.22852106245015      -2.23111489161512
H        -1.79231905585713      -2.13188692387130      -2.63596028279712
C         2.27686563528656       2.24261779491939      -4.07015844948530
C         1.71661312388403       2.37241171902610      -2.64805780070974
O         0.45488873323655       2.23867220943789      -2.54743566600844
O         2.48975937304019       2.58204029505566      -1.71190194768747
H         2.15180934686176       1.21253789148272      -4.40210640082357
H         1.71910394484559       2.89265770762431      -4.74206913215496
H         3.33231037164297       2.50519148851459      -4.08443303946995
