32
C10H15F3N2O2 optimized with ADF in AMS.
N         0.08080577192892      -0.76659641863042       0.07936012435030
N         1.80334381382554       0.54218427204568       0.26932175553902
C        -1.21265029391853      -1.40138161611907       0.33526556023786
C        -2.34009610315888      -0.74880307667950      -0.46069837744827
C         0.67510621625273       0.14490987222516       0.86708468802491
C         0.85960025674367      -0.93857919049639      -1.05007600927719
C         2.81639942003014       1.43936987468053       0.85174489194764
C         1.95456161383595      -0.12783554374343      -0.92768727972883
C        -2.53786487611010       0.72272870148180      -0.11348759669057
C         3.21916556278581       2.53163375883215      -0.12252851331845
H        -1.40150627672212      -1.32714822543980       1.41734160317878
H        -1.10522279489931      -2.46889972826953       0.09019383136553
H        -2.13338604592856      -0.86293070063361      -1.53869850132656
H        -3.26016475100937      -1.32241602418387      -0.25452842337972
H         0.30499178788684       0.48599531314932       1.82494093421867
H         0.58503835926496      -1.64181426820685      -1.82658645734954
H         2.38189499294097       1.84485422152472       1.77793464362663
H         3.67271891034667       0.77440149661552       1.07299182919374
H         2.90772879181440      -0.03741061870231      -1.49461162577046
H        -1.63388879157772       1.31046889817145      -0.33560630275356
H        -2.77908343083432       0.85068365422185       0.95418020470217
H        -3.36244846312261       1.15684364817714      -0.69671315948761
H         3.73106660965319       2.09163889553423      -0.99168200465044
H         3.93032506178837       3.20632825081130       0.37570849122480
H         2.35096110357757       3.12039683325335      -0.45569938431714
C         5.12187678272654      -0.69619114463175      -0.77944681841028
O         4.60718042464494      -0.88130994299877       0.34785442412578
O         4.68338670734901      -0.07765893046006      -1.78870149108432
C         6.52042085489129      -1.36558281105428      -0.99362189661253
F         6.37329923887798      -2.59378080399815      -1.59632117454755
F         7.19320242589911      -1.57730878420137       0.17475820965912
F         7.34166101421690      -0.62365571987503      -1.79409424364190
