41
C11H9F18N2P optimized with DFTB in AMS.
N         1.54916541361517       0.51557583621340       0.01921234395848
N         0.02165616158353       0.21823456113572      -1.46557083170208
C         1.23804416354938      -0.15622759128872      -1.08586927454495
C         0.51548106611599       1.35147925531209       0.34279524748288
C        -0.45121909828582       1.16114055923320      -0.59349391651765
C         2.86404150280850       0.50587817934729       0.64078676750356
C        -0.62495363155240      -0.19026531888001      -2.70171446331486
H         1.86741915544031      -0.86815008952175      -1.58826920420304
H         0.55402493095516       2.00512560456536       1.19647037477739
H        -1.41559109827687       1.62139698792719      -0.71727452287654
H         3.36527546819609      -0.42643197999638       0.38817650451918
H         3.43781667123058       1.34390717825292       0.24189595662958
H         2.75634946644109       0.60186942964757       1.71965253061606
H        -1.65861383195711      -0.46734942282452      -2.49828233209566
H        -0.59059790181617       0.64602792266223      -3.40077381288855
H        -0.07825454524402      -1.03274477924192      -3.11964202080490
P         3.34093852429228       1.34865904057276      -3.73481686255097
F         1.82202062232984       0.56678283246675      -3.90570175748301
F         2.95978357364666       1.51839252490855      -2.06846098823662
F         3.70813021473918       1.16669966522903      -5.35253475041189
C         4.04337005724993      -0.46413068873884      -3.42033846505901
C         2.34515687318113       2.97926959513108      -4.18338907239319
C         5.04853922305961       2.25006830997934      -3.28714774026783
C         3.31087016815741      -1.65830827569198      -4.09740641252701
C         1.43429841579447       3.61772544781228      -3.10218162164845
C         6.12411787681871       2.57128596143494      -4.35961990178531
F         4.04368798366222      -0.77066625180197      -2.09482597123246
F         5.31499372889739      -0.52085565811196      -3.83715016949849
F         1.52691584538863       2.69182361692945      -5.21176097965117
F         3.18171603910213       3.93867434612806      -4.60866287727072
F         5.65480340107988       1.50906683673467      -2.33593583905107
F         4.72306769047544       3.42131213149878      -2.70155744099991
F         4.07377533310097      -2.74901374932043      -4.06079132253695
F         2.97946988887255      -1.42687431187509      -5.35502117873211
F         2.18209379600663      -1.95177220677943      -3.41788834237329
F         0.79764756762932       4.68114362181798      -3.58799385221534
F         0.49316237754368       2.74027994703725      -2.70843033154400
F         2.09999765554507       4.00121162337626      -2.01877110248654
F         7.15288472871783       3.20868248797354      -3.79715608074700
F         5.63206159843870       3.35075121363150      -5.31623009090724
F         6.58943186106694       1.46233388811379      -4.92456043852926
