39
C9H16F6N2O4S2 optimized with ForceField in AMS.
N         0.16880213216147       0.28329141351004      -0.08928292111121
C        -0.43265626353394      -1.01998880846708      -0.48549056984949
C        -0.93080354392487       1.04656480835655       0.57501979266629
C        -1.93849357884402      -0.86614547378668      -0.43449125159872
C        -2.14771533842833       0.14103477989232       0.66290183207770
C         1.29726917305234       0.09798724898715       0.87425835364977
C         0.62523888748023       1.02573618547852      -1.29261828225472
C         2.47515275664051      -0.73239890775706       0.33451940058284
H        -0.16569567368487      -1.83047623638435       0.23127334818185
H        -0.11246505298680      -1.35936741993923      -1.49719841509862
H        -1.22362534410193       1.95833453110851       0.00270274951431
H        -0.66473898843064       1.40591195336029       1.59598075996853
H        -2.44755064361083      -1.82900458716786      -0.21102535215537
H        -2.31202604444525      -0.45755073135142      -1.39970092723511
H        -3.09253488711739       0.70281064665644       0.52196809669117
H        -2.16283070959073      -0.37509394676502       1.64880411615341
H         1.69689701790322       1.08898173578556       1.18945538356064
H         0.92765197368276      -0.40243561954641       1.79903434511559
H         1.37148802584757       0.44503598928780      -1.87496842784860
H        -0.22564342494399       1.22934118302434      -1.98133229333898
H         1.08146859700337       2.00017424860636      -1.00767077483659
H         3.19461798767720      -0.91525603462600       1.16045464946309
H         2.14276450117602      -1.71800246538895      -0.04955103474300
H         3.01871905935347      -0.18666031189362      -0.46284132728576
N        -7.39456378111598       1.83956457309671      -1.01873535205047
S        -6.50816714994258       1.24124805559440      -2.26200681556777
S        -6.71359835127168       2.46106899445802       0.33739086204781
C        -6.26687236049532      -0.50836385688241      -2.02781795301037
C        -6.64026425261018       4.23475250875565       0.20204039278678
O        -7.25262087414921       1.45877913529335      -3.54909205357262
O        -5.17053189777972       1.92400882594411      -2.33460099631294
O        -5.32487366362697       1.92235367919354       0.52864360705490
O        -7.55801434184768       2.10011960345010       1.52659493328796
F        -5.56273813269281      -1.02626769148803      -3.09841620574893
F        -7.49484666932670      -1.13680791365662      -1.94161097382410
F        -5.55631972574107      -0.72991457898259      -0.86361282378026
F        -6.03458224590350       4.76023344314731       1.32787611291054
F        -7.92024836651916       4.74351356220027       0.09108641853280
F        -5.90874531961200       4.58536908299602      -0.91663622002235
