58
C18H34F3NO2 optimized with ForceField in AMS.
N        -0.01911631025953       1.98422806099581       0.00813068826028
C        -0.70850251724087       2.88814898155550      -0.96378061562326
C         0.64430423339107       2.90249825099727       0.98451439085398
C        -1.02428662113940       1.13532786456077       0.72763737712405
C         1.00968107111880       1.16756291089194      -0.71526872686468
C        -0.22933309272924       4.30531192790362      -0.71527947378555
C         0.12180217934763       4.30585494895141       0.74559687191350
C        -1.76307586012621       0.11550493758950      -0.17202090350761
C         1.77797087879089       0.16571628252332       0.18000788382041
C        -2.87678910356857      -0.59458250736933       0.60664544465354
C         2.90811863443956      -0.51272192256116      -0.60308900054943
C        -3.60629267953103      -1.61059131896288      -0.27995411836630
C         3.66760664337989      -1.50947551080766       0.28021206852096
C        -4.68783800048774      -2.35475885270624       0.51111636210581
C         4.75487842774616      -2.23597454878555      -0.51922967229023
C        -5.42724955665112      -3.35300020983111      -0.37430375951656
C         5.51760262844214      -3.22216224957692       0.35984248851777
H        -0.53047486747186       2.61036668069518      -2.02769409045313
H        -1.81390086812138       2.89408911930174      -0.82226266368080
H         0.47682143945718       2.61274497323858       2.04693963248060
H         1.74871932827323       2.94286544628920       0.84098975824616
H        -0.54129607372341       0.57968577701280       1.56161965508321
H        -1.78317558836047       1.79123048667508       1.21454376841458
H         0.54227880438646       0.60192121643727      -1.55141698078365
H         1.74924863036452       1.84696151923024      -1.19972042009369
H         0.68001178849110       4.50928906572311      -1.32295018759897
H        -1.01401743733214       5.05758917754821      -0.94857163025170
H        -0.79332964182718       4.47766017942524       1.35452731987723
H         0.88305075671147       5.08026338151396       0.98400750152527
H        -2.20681951296180       0.62284670600323      -1.05403104031238
H        -1.05255442440918      -0.65568738555195      -0.53524589109842
H         2.21023794094858       0.68256499410492       1.06215814107463
H         1.08948345457602      -0.62532653594034       0.54299927896351
H        -2.43397933822218      -1.11958478139247       1.48188068332835
H        -3.60696634593661       0.15801590458315       0.97779470402607
H         3.61657232077093       0.25943969438109      -0.97621425059783
H         2.47632339709549      -1.04844202866738      -1.47735896420943
H        -4.07600858930347      -1.07887762616451      -1.13677707109920
H        -2.87379197317704      -2.34636306400165      -0.67929316157692
H         4.13545290614376      -0.96465125281018       1.12972643368082
H         2.95444383984693      -2.25685439548115       0.69076360586047
H        -5.42035588835019      -1.62677195145056       0.92265047794934
H        -4.22107352127679      -2.90260475769239       1.35851950742190
H         4.29087201519814      -2.79158873444599      -1.36313449253746
H         5.47168304169416      -1.49569225244454      -0.93649788390283
H        -5.93112914890197      -2.82574275690586      -1.21204594847298
H        -6.19657613003591      -3.88333839714786       0.22574261676153
H        -4.71850760537395      -4.10280666508842      -0.78592038759956
H         4.82746358212435      -3.99235009205323       0.76406176588147
H         6.30009381716011      -3.72904009961096      -0.24343677815873
H         6.00727111309693      -2.68967033906704       1.20258468906830
C         2.69521966251052      -5.05388892796799       2.70235200780481
O         2.11042793940574      -4.70829797957440       1.68818339779738
O         3.24923668929645      -6.14068704640089       2.73827100602679
C         2.73477411953060      -4.15512361499495       3.90253258019792
F         2.12812603968926      -4.78739089574909       4.97197264926562
F         2.07127263780547      -2.96810944459281       3.64507343150067
F         4.04902555698568      -3.87441349823469       4.22675781202438
