46
C14H29NO2 optimized with ADF in AMS.
N         1.21167152514975      -0.26920118946525      -0.00631614449099
C         2.22376341428324       0.28915125510654      -0.97763818605630
C         2.03780988674486      -1.28509046369169       0.77682050133140
C         0.66967035859604       0.79776442098673       0.92109727472792
C         0.09939606976552      -0.97388612921734      -0.76251597768801
C         3.06675685936538      -0.90569545127411      -1.42372477762360
C         2.97173719009054      -1.91983130140243      -0.25307261206913
C        -0.08199855103755       1.91356185014195       0.22281616337103
C        -1.05557389656676      -1.42676946938200       0.11728262099505
C        -0.56789585415854       2.92970168366842       1.26143447266226
C        -1.90364845905889      -2.48731067033957      -0.58613824290169
C        -1.33295460756816       4.08950789283479       0.63186657447302
C        -3.08411018852708      -2.93301206003631       0.27436795354949
H         2.82267767528934       1.00894634834046      -0.40014241811659
H         1.70772522772842       0.81491055902907      -1.79125286075191
H         1.34865308578732      -1.95202721491152       1.30991099891752
H         2.54080842499303      -0.71207410163743       1.57685178027342
H         0.07335216989692       0.24701800076345       1.67240599526577
H         1.53900218779629       1.16755257696471       1.48588087478077
H        -0.24067583603186      -0.28246292906261      -1.54960483221515
H         0.57010248276317      -1.83799712715183      -1.25671139911554
H         2.67818445440021      -1.33700371770117      -2.35887283045263
H         4.09987224977172      -0.58576313358901      -1.62207490530625
H         3.95291657918175      -2.10969089044377       0.20642503328564
H         2.59193922951923      -2.88968473821269      -0.60990309828978
H         0.55864079667629       2.43524315468643      -0.51234367673409
H        -0.95727248023179       1.52637116156385      -0.32891181052956
H        -0.68076545048288      -1.80715801748671       1.08359450809418
H        -1.69265238082131      -0.56245333436140       0.37141929855776
H         0.30150370800417       3.31279686999754       1.82410485299136
H        -1.20428558266462       2.40999902880381       1.99869812759071
H        -2.27367520887222      -2.09812171209305      -1.55349982370091
H        -1.26942896803096      -3.36177322885509      -0.82237129403245
H        -2.22187422981940       3.73033493995981       0.08842935633451
H        -0.70134891780857       4.64041808218036      -0.08412715544482
H        -1.67314897411887       4.80302951222719       1.39752037733807
H        -3.75106804844090      -2.08504798660780       0.49828153390473
H        -2.73229693412139      -3.34138050749293       1.23481491905139
H        -3.67891705827299      -3.70664277753414      -0.23404875840799
C         0.82077968481306      -1.03119275662673       5.34467579232586
C         0.99264712697338      -0.75203470048138       3.84415377239833
O         2.00317792305895      -0.06569443608978       3.50785449835128
O         0.10773355547373      -1.24961246387847       3.06825876608620
H         1.54702522386655      -1.80209107355268       5.64909915171954
H         1.04482942238139      -0.12607459776467       5.92776717633772
H        -0.19140007843548      -1.39267595711156       5.57115353671246
