42
C12H23BF4N2 optimized with ForceField in AMS.
N         0.22103417666873       2.31042512803182      -0.20592440578936
N        -1.85404979223576       1.50771438033656      -0.18953778783126
C         1.61211285281786       2.51247140162145      -0.61159554599300
C         2.54325872817406       1.49776594452463       0.07150355206439
C        -3.04033628771242       0.74874990595369      -0.58472492263321
C         2.11613865896333       0.05223148775441      -0.22024175761269
C        -3.06903344577191      -0.62883615008833       0.09474738330827
C        -0.73814441852965       1.69100034913059      -0.92138821435857
C        -0.30802835860925       2.53216186755731       1.01441836213393
C        -1.59559551005389       2.03549663181273       1.02412735691054
C         3.09453767698920      -0.96630714026091       0.37037688487906
C        -1.87623165211430      -1.49781878342182      -0.32846603473379
C         2.59237294551612      -2.39148278824119       0.14135751081539
C        -1.92956281752622      -2.87928808051093       0.31591919668770
H         1.92637024979594       3.54472391409998      -0.34657152325662
H         1.70264794175823       2.40686925864836      -1.71508453441235
H         3.57822621798987       1.66104596693845      -0.29950370446550
H         2.54013418320532       1.67285716909372       1.16923366151763
H        -3.95081860514071       1.32012081351182      -0.30253394484789
H        -3.05721950883789       0.61682389310268      -1.68894468243092
H         2.03909774072905      -0.10092170868146      -1.31919141499169
H         1.12198756023751      -0.12088960373743       0.23572897849056
H        -4.01362747821405      -1.14196445460177      -0.18810007470706
H        -3.06703382894522      -0.49874996868375       1.19876090578483
H        -0.59487244170832       1.30045066909798      -1.92020039657865
H         0.21939740217156       2.97419878002851       1.84949695418162
H        -2.27445853603662       2.01830336870976       1.86674962909825
H         3.20086781748890      -0.79497326032647       1.46343948289284
H         4.09183042947710      -0.84955125467742      -0.10574981951447
H        -1.86292205953751      -1.61023251742381      -1.43413476769065
H        -0.93411549094585      -1.01008780337053      -0.01486311107704
H         2.50038794469235      -2.59857516590664      -0.94607251014099
H         1.60030144887270      -2.53395184298800       0.62193039383213
H         3.30680588697063      -3.11761340633457       0.58272585393099
H        -1.92976539536863      -2.78959010962194       1.42293476378744
H        -1.03601276740182      -3.46433404919379       0.01049573226097
H        -2.84020233741473      -3.42367673671809      -0.01091793998589
B        -1.17369502228958       2.75611577053829      -5.45146386910786
F        -1.04904160538749       1.78864625515258      -4.42120711200306
F         0.10227407890695       3.30942224389349      -5.73812488759701
F        -2.05333332496843       3.78761346317328      -5.02876634322292
F        -1.69491304177517       2.13726950687673      -6.61824815379413
