40
C12H22F3NO2 optimized with ForceField in AMS.
N        -0.88412293043911      -0.16743121679467       0.05088941550550
C        -2.01628804147058      -0.27851577033819      -0.91956824063504
C        -1.22200965535455       1.01330308872039       0.90459817607991
C         0.38973629582090       0.08179342625646      -0.70020031978884
C        -2.84272396404091       0.98882671518883      -0.82978002115503
C        -2.64370186635935       1.43818104081814       0.58980529504780
C        -0.81278286411453      -1.39555914076589       0.90712140329270
C         1.65181243402338       0.19876242215095       0.18893434443888
C        -0.46966305538014      -2.68899498345124       0.14654948843066
C         2.86221573657529       0.64038086614511      -0.64278974070659
C         4.12262931166903       0.72713823652781       0.21291800617217
H        -2.69950718886162      -1.12429675345684      -0.67393736157043
H        -1.68259918554211      -0.43761489311070      -1.97078910826460
H        -1.12491527970385       0.80976023844927       1.99598123671089
H        -0.56983293112409       1.89064901035515       0.68885580474964
H         0.56650458889109      -0.72433552218923      -1.44653762063045
H         0.29024226173305       1.01871810574758      -1.29633647060829
H        -2.43902983974083       1.75415761502439      -1.52947587783267
H        -3.91577044642871       0.80220334898729      -1.05388062766440
H        -3.35497230886497       0.90432407832289       1.25876718675259
H        -2.78202467680907       2.53648954856647       0.69419623322043
H        -0.06729289173381      -1.26691552839681       1.72192364442862
H        -1.78786807764057      -1.55422500932969       1.42260257460298
H         1.49159068477563       0.93280768855726       1.00613251865249
H         1.88467506966085      -0.78569296844128       0.64578404617806
H        -0.56292209152585      -3.55121284639658       0.84025558362102
H         0.57519535419554      -2.67222991486931      -0.22313618026049
H        -1.15890479511379      -2.86009204242933      -0.70493302894368
H         3.03694655118140      -0.08812868363364      -1.46444970666530
H         2.66587303995238       1.63833584293100      -1.09200595183113
H         4.34497441908598      -0.25982360707352       0.67055129407158
H         3.99391563773828       1.48401830425830       1.01559720846172
H         4.98277505511030       1.02587251020241      -0.42254174044082
C         6.74069755656110      -1.24407095569291       2.40290872286257
O         6.34754605374000      -2.39620114980261       2.49456508718599
O         7.04197278013850      -0.79482000019524       1.30900691087531
C         6.85313218890277      -0.37896577546526       3.62298687051617
F         8.14673920193360       0.09689704645069       3.73459069905570
F         6.53901256841756      -1.10092881043058       4.76159343758515
F         5.98276192214181       0.68961449500316       3.51166766749923
