48
C12H26F2N2O4S2 optimized with ADF in AMS.
N        -1.11644916897147      -0.28029508352664       0.17856449211305
C        -1.40071578973512       1.21049039747971       0.26888911641932
C        -1.99140632860434      -1.02530832706360       1.18354887397012
C         0.32609462825669      -0.55108941523434       0.58668968122439
C        -2.87603183285557       1.54310577352152       0.12459832052982
C        -3.46783403808290      -0.70571209606306       1.04073047167599
C        -3.70905805644426       0.79744936054651       1.16410340588156
C        -1.35864398290177      -0.78291898615105      -1.20409452167012
C         1.40512312429240       0.14599781074380      -0.21683065560888
C         2.76838799244632      -0.21627248887190       0.38475455618374
C         3.92005472508127       0.51229598578367      -0.30095777303401
C         5.27954000640396       0.16072638104681       0.29991154105785
C         6.43130592466775       0.89245698814774      -0.38434383985698
H        -0.79306803124229       1.69553112423903      -0.50630445184570
H        -1.04592334691545       1.52994295153184       1.25838429604372
H        -1.62337925731194      -0.71250887395013       2.17449452121887
H        -1.76864356044505      -2.09449671366465       1.05023750931149
H         0.38038392727575      -0.23234860967005       1.63340148148065
H         0.44297522558718      -1.64605555209286       0.55878843943189
H        -2.96410694768178       2.63286365485727       0.26713035760409
H        -3.23696049861090       1.32839810461419      -0.89692388709497
H        -3.87822570612799      -1.09107587503473       0.08981447100266
H        -3.98593972765467      -1.25196450342173       1.84638298207847
H        -3.40503147160362       1.13496186212913       2.17067777636279
H        -4.77859996160033       1.03044786899010       1.04078796938896
H        -0.72605056257772      -0.22291415171272      -1.90185522473041
H        -1.10166335381946      -1.84991531173406      -1.23502829452239
H        -2.41145739437259      -0.64622466104657      -1.46902977275717
H         1.38610340269222      -0.14600181416045      -1.28121190470604
H         1.28242653663443       1.23933905253189      -0.15768436530509
H         2.76346000050051       0.02734020263878       1.46155126284088
H         2.92416457338985      -1.30841826390123       0.31243514537978
H         3.75864137663084       1.60372480193436      -0.21933986772570
H         3.92357133510895       0.27458593391883      -1.38251426921739
H         5.43500100304180      -0.93102211113746       0.22944563542820
H         5.26717676668858       0.40216002233796       1.37788614799738
H         6.47628143788100       0.64205760247307      -1.45677579328926
H         6.30764483255546       1.98413157254936      -0.30023142096448
H         7.40137277819453       0.62849462270723       0.06421681260931
N        -0.36264804538419       0.15839738894440       3.74408024025247
S         0.73568324581544      -0.93889929197261       4.21233556645183
S        -0.11778825939305       1.73792850473614       3.90963517960934
F         0.53867318955723      -1.00077558809750       5.83707785021548
F         1.03509748005311       2.04558311351592       2.72520079704454
O         0.24674772908995      -2.21658023573412       3.72314980430727
O         2.11943628566518      -0.55256743321515       4.01295196125238
O         0.49913829175502       2.18792326492614       5.13604604316171
O        -1.30050196022900       2.39291973761121       3.36683520059858
