38
C12H23ClN2 optimized with DFTB in AMS.
N         0.28127848239564       2.06545149708495      -0.16010176579842
N        -1.71233159546420       1.35745556586382       0.24893950572033
C         1.62235058470895       2.18219999480125      -0.72463991535859
C         2.64662292897972       1.38672388120937       0.10942605136910
C        -2.92764258476893       0.55053722640206       0.21480568838235
C         3.22536103603108       0.18046615619918      -0.63576136516610
C        -2.73199491231668      -0.75779023417468       0.99299515787386
C        -0.66536409867199       1.22028309366307      -0.56309237856439
C        -0.14625723454882       2.70947033012739       0.96698733120133
C        -1.40253604253020       2.26124678286683       1.22562873462680
C         2.18764179902899      -0.92017593051051      -0.87875495762078
C        -1.93999964120510      -1.79654778547484       0.19515731564186
C         2.82962115832119      -2.16761576578423      -1.48219999850104
C        -1.64757245985265      -3.02809338908770       1.04868618605297
H         1.87421733019635       3.24636192412099      -0.73412157769746
H         1.57863666375392       1.82929873891402      -1.75870779347074
H         3.46440593838181       2.05978289355802       0.38197212043136
H         2.16822919524007       1.04395337167739       1.03131560927153
H        -3.72446884616405       1.14762877136293       0.66560892800912
H        -3.17860383869755       0.35616661930819      -0.83239873467674
H         4.03652363705298      -0.22680525512111      -0.02388425250290
H         3.66023453015738       0.50401354899105      -1.58923713585503
H        -3.72334987170137      -1.15116099224551       1.23588282912136
H        -2.20487701124640      -0.53739378888043       1.92500063779966
H        -0.61405504057816       0.58192823499284      -1.42681424333174
H         0.47343629680517       3.41545632977593       1.49057128936935
H        -2.08601579533212       2.50187745074174       2.02038406651334
H         1.41078717394156      -0.55372318932823      -1.56043919882050
H         1.70860383388396      -1.17771424024092       0.06981487660272
H        -2.50211161546174      -2.08165982249264      -0.70213526424818
H        -0.98977589447100      -1.35829507330267      -0.12259837948011
H         3.58442202912089      -2.57182835985531      -0.80663321120389
H         3.30685730642454      -1.93473195318121      -2.43607804611570
H         2.06951023565451      -2.93109424764953      -1.64978159337376
H        -1.04043335605046      -2.74484920823242       1.90812223211119
H        -1.09890634116621      -3.76420512384783       0.46078539913625
H        -2.57410680775582      -3.48255655365133       1.40319866493092
Cl        0.34243780390476      -0.17287892529993       2.04988667132069
