38
C10H22BF4N optimized with ADF in AMS.
N        -0.98935596099306      -0.17943340089883      -0.03039524931073
C        -2.02995359213252       0.03533777612690      -1.10800973371046
C        -1.42729708404037       0.81622912483297       1.03525366220583
C         0.39274997599779       0.13779484297695      -0.54367164619940
C        -3.35108333472323       0.21545412182097      -0.35638089918098
C        -2.94848636851059       0.70865552611282       1.05894191517348
C        -1.07266941698541      -1.59418866788645       0.53084145761986
C         1.48952694642981      -0.03360112576637       0.49232823756803
C        -0.64070381005419      -2.67323855971832      -0.43906228505735
C         2.82400913588004       0.49834140246523      -0.03177632737074
C         3.93568266147620       0.33533629036574       1.00267932908210
H        -2.00422781671044      -0.80225485597283      -1.81546561181085
H        -1.73691525633610       0.95480670314062      -1.63677038522801
H        -0.95789111207082       0.58378151423186       1.99822187680754
H        -1.08676234684288       1.80006500144531       0.67520699063978
H         0.56330912066088      -0.49873949506556      -1.42533486822497
H         0.34594255584376       1.18259017158402      -0.89003158626416
H        -3.98715008990764       0.93554281449378      -0.89032307145840
H        -3.90828368488919      -0.73085679317418      -0.30314578952207
H        -3.24856543605050       0.00168315985776       1.84525437449809
H        -3.39002365860860       1.68348319112754       1.30626821382757
H        -0.47090602425584      -1.59078330859839       1.45037020930540
H        -2.11152227479696      -1.73361854695445       0.85310880647093
H         1.22185826099807       0.48729991801431       1.42462734351314
H         1.60059648773214      -1.09395709455007       0.76809733079860
H        -0.77752354877561      -3.64034436177841       0.06797446565951
H         0.42227013478882      -2.59978818781290      -0.70902024617023
H        -1.23967027481021      -2.70513878016695      -1.36108557286623
H         3.09857974525678      -0.02855962605676      -0.96396700919413
H         2.71558226543235       1.56615326020238      -0.29514780862068
H         4.07959807253801      -0.72545403480037       1.26046243347318
H         3.68342790978271       0.86835088670253       1.93244798574984
H         4.89235479216522       0.72933132520419       0.62855329924471
B        -0.92845059465836      -0.80842390647614       4.07507859528898
F        -0.73870233374744      -1.37292487075131       5.33292448788368
F         0.24690336133685      -1.01768608996627       3.24656283546168
F        -1.15176866989129       0.59917782823947       4.14042300794377
F        -2.04220812542818      -1.41207767235082       3.39689048007368
