66
C18H28F18NP optimized with ADF in AMS.
N         0.22503211613116       0.35816097440824       1.13226744221592
C        -0.92956096869368       1.27434923348882       1.54087242440537
C        -0.29497728152213      -0.99193445392570       0.68050083566640
C         1.13933236918735       0.15489953768296       2.33947941046705
C         0.98024066517212       1.00118643265259      -0.01820740606975
C        -1.94716678674438       0.66367028768625       2.49136286526396
C        -1.29861336293740      -0.97136506394987      -0.46276798134049
C         2.40934889015679      -0.63845906943348       2.08393312642732
C         1.70653444110122       2.29346586644560       0.30990306127467
C        -2.98504621195414       1.72302728559627       2.86844751186785
C        -1.82015533400120      -2.38745851866030      -0.71093146803745
C         3.18168087353854      -0.77208936119925       3.39993421990018
C         2.36357061506868       2.84713316642777      -0.95439577072784
H        -1.41200893849248       1.59172664456661       0.60384954765539
H        -0.46784530099742       2.14985027086320       2.01312140242402
H        -0.73417097712716      -1.46110519787050       1.57308319044125
H         0.58692985978352      -1.58060325982444       0.39381186263937
H         0.52407293843319      -0.34028414635530       3.10068085060315
H         1.36807799871424       1.15359660018159       2.73002383237987
H         0.23574457867274       1.17912256151743      -0.80712054253466
H         1.68683227961316       0.24092314553545      -0.38611783466131
H        -2.45575671296475      -0.19656423637578       2.02540216977884
H        -1.45321162581061       0.32014165655020       3.41205713624612
H        -2.14622158835332      -0.30896133864661      -0.22713863103089
H        -0.82957112211552      -0.58988683323632      -1.38379368667598
H         2.18328182508041      -1.64525308902114       1.69527651224354
H         3.04548250334681      -0.13179475896093       1.33917558373970
H         1.01105217877145       3.04118094107300       0.71777395623677
H         2.47367429116022       2.12495629733705       1.07985649640770
H        -3.76178153691813       1.27885100962200       3.50689515796151
H        -2.51274443917304       2.54151165203192       3.42844541004683
H        -3.47738348460402       2.14115706814221       1.97549788413469
H        -2.52838807884491      -2.39667261775198      -1.55164880531606
H        -0.99890994638857      -3.07956995447186      -0.95363623009890
H        -2.34275867907869      -2.77778352326209       0.17588746894218
H         4.11061120452503      -1.33880579187082       3.24311380507815
H         3.43466346012606       0.21511117655465       3.81096627977405
H         2.58133803440423      -1.29436315580614       4.15932684759555
H         2.90548430726357       3.77491450173617      -0.72251759264432
H         3.08480388781353       2.13205753741498      -1.38089126354636
H         1.61407299053365       3.07865236939868      -1.72740636637879
P         0.86384166810238       2.83678061442712       5.51425265545723
F        -0.05675595358386       2.23377902730852       4.22543689559046
F         2.25031199442175       2.09079864488894       4.93410888542319
F        -0.50225199662554       3.59646353202522       6.07104705035520
C         1.24549897730705       4.29986663933143       4.22466272776690
C         0.38053563691460       1.07332911510273       6.43011608526426
C         1.80954374946926       3.50767718474590       7.15009988788195
C         0.10780247187338       5.28391473023396       3.80884348427584
C         1.35354109279850       0.21021703851020       7.31162559742237
C         2.22571385586155       4.98908921927786       7.44171749837089
F         1.64117361812207       3.72489002067480       3.01374688448096
F         2.29879742850485       5.09019053746046       4.60580638466375
F         0.07147288562619       0.15188808071314       5.41929476935544
F        -0.76445597897626       1.21838927922868       7.17037568049721
F         2.96206656852694       2.77945566004245       7.35242085590614
F         0.94052710622907       3.20802482749337       8.18031308497969
F        -0.97480615989316       4.62750237206771       3.31133293126835
F         0.56682083534377       6.10183309096173       2.81284655074977
F        -0.29436757351605       6.06671870784005       4.82573194215746
F         0.76135565820383      -1.00400817836283       7.53993203176883
F         2.52104520490480      -0.02934639703461       6.66422520964627
F         1.62382724050339       0.74033809618670       8.51712360451363
F         3.40936118735704       5.30528190420260       6.86782966348178
F         2.38605037392542       5.14772223626352       8.78574038365206
F         1.28101384342287       5.86719453001919       7.03672900051577
