62
C16H36F2N2O4S2 optimized with ADF in AMS.
N         0.48875867206245       0.22901125910303      -0.49120195577763
C         1.52688519669794      -0.57980770676615       0.27769019228131
C        -0.07427800180312       1.29458275112675       0.44397734790986
C        -0.59621533796663      -0.70216127408923      -0.98968716187661
C         1.12791377733780       0.93167948736434      -1.68025814735418
C         2.79463079674264       0.16430480670065       0.65415976030282
C        -1.23946845979620       2.10369861394512      -0.09452765744095
C        -1.41695042741414      -1.39562321719373       0.08530133118305
C         1.88251266071948       0.04500858458775      -2.65598795418759
C         3.70273431739933      -0.75286893441543       1.47743018872281
C        -1.60556164129491       3.18991655926688       0.92311236987103
C        -2.47793279175804      -2.29586222636361      -0.55372087321207
C         2.60203738682776       0.93616845847258      -3.67575009939868
C         5.01184946058619      -0.06048699140162       1.84622827857622
C        -2.72481882193128       4.09132762275744       0.41433426133601
C        -3.32677110439430      -3.01147861647563       0.49319863516775
C         3.41305234059046       0.12568172735662      -4.68086613547670
H         1.75451238542625      -1.45816583030624      -0.34568157228570
H         1.01602856034369      -0.93283241049213       1.18433963027816
H         0.76175376057095       1.96370843183466       0.67975730467571
H        -0.35345346644129       0.77287485951855       1.37082022881745
H        -0.09209680612811      -1.44689593113177      -1.62153695607862
H        -1.24641699226387      -0.09675014907138      -1.63840656268263
H         1.79863691675197       1.69235469442559      -1.26039843306056
H         0.31213107530514       1.45653419777523      -2.19552980152464
H         2.56848379190927       1.06753138435124       1.24026068874975
H         3.33927709708222       0.50147898241119      -0.24097721618490
H        -2.12449012637590       1.47140073412086      -0.28851514573926
H        -0.96306163162040       2.60190920729741      -1.03697984962131
H        -1.91873255606683      -0.65496911430720       0.72917460669328
H        -0.77319138041740      -2.01229292878257       0.73388023994769
H         1.20802163603417      -0.64888215660745      -3.18711274561960
H         2.63929551999889      -0.56357586652690      -2.13314346242251
H         3.91422590545857      -1.67823128167301       0.90850331319528
H         3.17439857638693      -1.06205793171233       2.39772978874013
H        -0.70562249885324       3.79039333056210       1.13400990296312
H        -1.90271655839324       2.71675091990314       1.87660998418061
H        -1.98508233857866      -3.03951148200742      -1.20528775132736
H        -3.12817059953636      -1.68711558551489      -1.20804322961298
H         3.25798991940473       1.63739491276332      -3.13220280289080
H         1.85918091431674       1.55797554629412      -4.20673068751191
H         4.82093915038485       0.84558346727464       2.44038041457163
H         5.55836594926574       0.25113650065296       0.94259835339964
H         5.66266038283703      -0.73027767707400       2.42800392664417
H        -3.64280567916342       3.51753953941330       0.20570777007502
H        -2.42123378088408       4.59974681430091      -0.51435715953186
H        -2.97057675573100       4.86710878973159       1.15476907121046
H        -3.84867155108524      -2.28863047313067       1.13984400264271
H        -2.70269247437295      -3.65062596491362       1.13806631400332
H        -4.08621351631308      -3.65018637219975       0.01857225513387
H         2.76944200413857      -0.55520222890325      -5.26146824336949
H         4.17676660821092      -0.48372401739854      -4.17152626512212
H         3.93113939991314       0.78792294020682      -5.39023645171741
N         2.96601024615603       5.09666004938267       0.79122371862529
S         2.77064925813690       4.46620545453446      -0.65968969704678
S         2.95682712675435       4.15940168431137       2.09586903474279
F         1.10295692655688       4.19593446623029      -0.73190800458197
F         4.39783040061755       3.34913114553357       1.98393823818230
O         2.98787698974370       5.48271582795744      -1.66284888466639
O         3.30187384364045       3.11781784842826      -0.85382078057999
O         1.97084443802228       3.07872381172305       2.08882106795587
O         3.09359342435175       4.99226224893867       3.26688332632412
