59
C17H21F18N2P optimized with DFTB in AMS.
N        -2.00881973174033       1.96762694255620       0.35212495194970
N        -3.59968186399522       0.55993683623249       0.00770295864038
C         0.37918060114958       2.45004648119013       0.68035694066876
C         0.85741030657619       1.17486819376539      -0.02002915385721
C        -0.95093786951726       2.94582557740540       0.11609480013190
C         2.19259109555289       0.69327264105517       0.55590189392939
C         2.67022932903259      -0.58347054617638      -0.14324837573600
C        -2.65513903936951       1.28712315417694      -0.58916225859064
C        -2.56799785038534       1.69644342687477       1.57041276534832
C        -3.57532446490334       0.81134190220148       1.35291139100660
C        -4.56590602429431      -0.29511454725165      -0.67698332530836
C         4.00019547842461      -1.06782685739274       0.43131467274124
C        -5.83990379537174       0.48328236986269      -0.98140118458005
H         1.11568381156228       3.24661093209864       0.54462147964694
H         0.27330868453282       2.26852128327443       1.75392660027662
H         0.96829942014468       1.36902065145887      -1.09246206855382
H         0.10276898707738       0.38901339048407       0.09974977097048
H        -1.25464378822234       3.87625293247164       0.60097498697721
H        -0.88685641610206       3.11144285013376      -0.96161470040175
H         2.07725743853640       0.50263472759624       1.62833423085081
H         2.94461270988066       1.48007325288806       0.43562948510290
H         2.78499680678658      -0.38956070997229      -1.21507191497756
H         1.91429016068077      -1.36754190366594      -0.02460568245956
H        -2.45690155033978       1.32435480684556      -1.64636184677542
H        -2.23349601910338       2.18112058960379       2.47062990338623
H        -4.27215462653262       0.35331377246349       2.03263441247535
H        -4.09825333165973      -0.65388278145792      -1.59802120505621
H        -4.77337776008993      -1.14861406860095      -0.02593477337495
H         3.90035392862917      -1.28531592411403       1.49554576811507
H         4.77113698931880      -0.30697033198650       0.30337998363120
H         4.31945302265796      -1.97568489602932      -0.08061738881685
H        -6.30019101213725       0.83469930970623      -0.06031822287843
H        -6.53924508475671      -0.16837282139588      -1.50324863884145
H        -5.61632855472291       1.34278375924303      -1.61035224164635
P        -4.79965195658494       5.12624124731307       0.70886627973932
F        -4.91241241823302       4.79518411702478       2.35230422344646
F        -5.81884474128361       6.42933817818558       0.87093510454397
F        -3.73690250102080       3.79656536369796       0.49818177457076
C        -3.21380101108135       6.19896975311377       1.14422313633257
C        -6.29204559483248       3.85937810115111       0.54727442726072
C        -4.66595552170917       5.50931081805818      -1.25233582275914
C        -2.50753197142478       5.93555636011836       2.50195378644272
C        -7.70057587794983       4.31324100755174       1.00846394532354
C        -3.89434497415870       4.54402048458131      -2.19756618918742
F        -3.45192723360316       7.51412147079263       1.08248114790545
F        -2.26116119268941       5.91826337779051       0.21768083312867
F        -5.98629036092083       2.76548976101195       1.28650844837354
F        -6.43924770475656       3.40966758604296      -0.71711946853781
F        -4.09096981585403       6.71501107200940      -1.42230978549188
F        -5.91586345668572       5.60592426993993      -1.74525963188382
F        -1.33064653226414       6.56710190016197       2.53212221973851
F        -2.24211871976162       4.62459959776615       2.65002530969377
F        -3.21225989412621       6.34048704888289       3.54492747257733
F        -7.68144377607325       4.80006806897144       2.24287309075732
F        -8.19624632673226       5.23492152657439       0.19211361340828
F        -8.53464512045482       3.26537632500751       0.99612016473682
F        -2.57854923245113       4.56835584939687      -1.96207431120795
F        -4.08010474018785       4.87050614594470      -3.47340225218105
F        -4.27755891756004       3.26398889466594      -2.05690853312511
