22
C8H11NO2 optimized with ForceField in AMS.
N        -0.69947978749900       0.01352574922446       0.01551745580383
C        -0.01441747528910       1.19711589273134      -0.00816819672292
C        -0.02815934853272      -1.17812652749489       0.00860783296959
C        -2.16379062772612       0.02179659408256       0.00704826311233
C         1.38277214388921       1.20687028780669      -0.01795043894354
C         1.36879635187637      -1.20421595513869      -0.00087255669819
C         2.07592926559940      -0.00278941401037      -0.01202181099070
H        -0.54579068815567       2.14168420641340      -0.02047642484312
H        -0.57042862998614      -2.11654374290536       0.00980615416052
H        -2.56690295936839      -0.86735197974474       0.53878664344662
H        -2.55690255903286       0.92503815070743       0.52226690863431
H        -2.52860156270489       0.01418661291700      -1.04158802466651
H         1.92217267204327       2.14508228336877      -0.03124395776809
H         1.89735799606408      -2.14865974051472      -0.00073781254048
H         3.15786706203679      -0.00935410597270      -0.01832407891911
C         6.32626658086321      -0.04681923751753      -0.74903893008934
C         5.65846254623314      -0.18639858327881      -2.08047401939091
O         5.49722933099379       0.79567396326616      -2.78697774861909
O         5.27305057264782      -1.27886991914337      -2.46464658325164
H         7.35388213798032       0.35068955430220      -0.88660741000544
H         5.74621153970025       0.65416185422296      -0.11289012383779
H         6.38752057516723      -1.03051692162179      -0.23593453284032
