41
C11H22F3NO3S optimized with ADF in AMS.
N        -0.14288028931485       0.16067929640200      -0.27893884545263
C        -1.54675878006429      -0.24788079171105      -0.66325575044795
C        -0.34146514758572       0.80700315157362       1.08329086403542
C        -2.19607893053753      -0.73882879746651       0.63203879229634
C        -1.39855442998883      -0.05384286364514       1.77351703271897
C         0.41656369711961       1.14304764508409      -1.28259825889607
C         0.75199393589003      -1.05962471533032      -0.10878057231123
C         1.80997129627039       1.65017127459136      -0.96244226240217
C         1.11779012080975      -1.78683246860223      -1.38943515010656
C         2.24478489676790       2.69598161164910      -1.98641735956283
C         1.92469135618195      -3.04053424701288      -1.03560745240087
H        -2.03980077489162       0.65898563809921      -1.04404690301757
H        -1.50007867974098      -0.99231877017992      -1.46749116759156
H         0.63167582874664       0.84607309692434       1.59881717279164
H        -0.71380683503824       1.82326337339420       0.88298279286858
H        -3.26168551624088      -0.46753642671565       0.64315291939869
H        -2.14058904423815      -1.83367912549820       0.71391920681898
H        -0.92350568196329      -0.79885890259295       2.42723929335623
H        -2.03924858554442       0.57384071117664       2.40914489635726
H         0.38816268603612       0.64012784581934      -2.26211815554524
H        -0.30545046886865       1.97652661543720      -1.30974023381522
H         1.64792931123612      -0.71727769798272       0.42329074009306
H         0.22122370342083      -1.73076987753592       0.58158742861841
H         1.84478058276061       2.07505059766803       0.05181803378992
H         2.52978706475278       0.82049236646068      -0.95442873931235
H         1.73315602343233      -1.13579584358091      -2.03249527050573
H         0.22239139938685      -2.07279888502560      -1.96983054493879
H         2.25475727503737       2.28411988283436      -3.00851401213144
H         1.58047156470485       3.57498887929159      -1.97757954947686
H         3.26251527951581       3.04089730235869      -1.75460950295215
H         2.79122289947831      -2.77498042483123      -0.41300865588375
H         1.31319553242412      -3.75319691913802      -0.46041962290203
H         2.27309324536712      -3.54526249599740      -1.94770796235503
S         3.56167250587620      -0.39605520866886       2.25137976372391
O         2.62129055536838       0.71018160195022       1.92127894240450
O         3.11198629760575      -1.71232597514850       1.75478336728305
O         4.14393802737444      -0.35347306987347       3.58921758073249
C         5.01196458897005      -0.01009813449987       1.11598284466568
F         5.55232333587522       1.20741278728423       1.38489364652374
F         4.62154634888107       0.00565446354091      -0.20606211686682
F         5.99278308552685      -0.94038468160250       1.22687167189800
