39
C9H20F2N2O4S2 optimized with ForceField in AMS.
N         0.26691724325609      -0.12088801061169      -0.19196662528369
C        -0.59299482063250       0.69629086501887      -1.10832594568442
C        -0.50169066006242      -1.33758783902940       0.22903598127918
C        -1.95201104350824       1.08754837266386      -0.50577453063574
C        -1.87591292149252      -1.02214102294761       0.85558564380910
C         0.68476837276890       0.65432391447198       1.02831475574524
C         1.45549118407720      -0.55756473412854      -1.00163908251995
C        -2.72167276363167      -0.15810037586402      -0.07585354578940
C         1.54084980931183       1.90470420419388       0.76478469713642
C         2.53158231025396      -1.35436632165423      -0.24255129778164
H        -0.80739644318067       0.12362125442820      -2.04141507791566
H        -0.07057128915827       1.61491739316510      -1.44808703956825
H         0.06857769189606      -1.93133538374658       0.97544476455475
H        -0.68004245290117      -2.00668456265465      -0.64446464010447
H        -2.54478846559256       1.62670682842504      -1.27602282833622
H        -1.82743224280434       1.78490282658329       0.34798945093033
H        -1.76152908930597      -0.52411370893040       1.84069904283963
H        -2.41339392831227      -1.97597576917430       1.04650423606958
H        -0.19214593937074       0.99825091766173       1.60898604483486
H         1.23999476984479      -0.00068153070715       1.73431462996475
H         1.12692330791477      -1.19029461049922      -1.85817753617923
H         1.95395639718206       0.31761625501886      -1.46954078100867
H        -3.65783279747537       0.14286706561556       0.44142781469500
H        -3.00005114256672      -0.75034342865863      -0.97538506630676
H         1.78647799181402       2.37762164816570       1.73921656979545
H         2.50012124595266       1.65452041103882       0.27149519320216
H         0.98963746953808       2.66008315067662       0.17106960257355
H         3.33259820623535      -1.63830486236213      -0.95758112353294
H         3.00895958254374      -0.74814998701833       0.55269051038020
H         2.12501035425368      -2.29197074318617       0.18449731410471
N         3.41761698097293       0.86827227495594      -4.42174095412009
S         2.76975456478468       2.31862571855340      -4.02855083384891
S         3.76845578994413       0.49213422724914      -5.97541702049904
F         1.15097961913926       2.33036383174164      -4.45438762663770
F         5.14403129328484       1.32204638566982      -6.44611844514570
O         2.89786709964487       2.54634551269573      -2.54991025158434
O         3.47758614363302       3.41618500251656      -4.77223602411785
O         2.62953549009268       0.89166125988234      -6.87110090904658
O         4.01317601195581      -0.98486381941904      -6.09424091146767
