44
C12H26BF4N optimized with ADF in AMS.
N        -0.86301442502948       0.14295418053382      -0.68509572956059
C        -0.25185392800624      -0.96836443092310      -1.52421250215398
C        -2.14032455726104      -0.49147455131154      -0.18357558840639
C         0.04619406900216       0.45918559508007       0.49342611460566
C        -0.54615850242501      -2.25470181349147      -0.75240838757329
C        -1.77604856078843      -1.94060293856452       0.14089289804175
C        -1.14068235918634       1.36601371476850      -1.53604439556237
C         1.30899313906117       1.23395317595250       0.12651533062369
C        -1.84576235154136       2.47852104149411      -0.78832943949510
C         2.52151507643023       0.78055307887954       0.94982289047252
C         3.06403753253745      -0.57567984232784       0.49523257615779
C         4.32942230886290      -0.99912141051767       1.23906407070463
C         4.86141156060122      -2.34911543133770       0.76194088761984
H         0.80743933751482      -0.75014352725480      -1.71509649523748
H        -0.75954337486157      -0.92946100999894      -2.49724356429415
H        -2.85346108774182      -0.43368367108639      -1.01956919078009
H        -2.52929535083297       0.08383648608802       0.66592574530461
H         0.29835424139513      -0.51482899569464       0.93640226846886
H        -0.57049659948984       1.00627099763954       1.22270009266198
H         0.31566305137916      -2.56101673210719      -0.14141808168241
H        -0.74436213286166      -3.07312645362997      -1.45894398959911
H        -2.63089289025917      -2.59910024252054      -0.07073040835840
H        -1.53312829063920      -2.05652147688731       1.20747282577072
H        -0.18028238250989       1.69794094514649      -1.95767983225851
H        -1.74212815211530       0.99938255759119      -2.38178073165913
H         1.56293286966185       1.10277925613631      -0.93607050986678
H         1.13060950833714       2.31267940242194       0.26259013470133
H        -2.00427036278367       3.30303470576911      -1.49871462734452
H        -2.83131192028434       2.17951871707273      -0.40120760348187
H        -1.23776247649869       2.87713831308038       0.03665348050371
H         2.27983337565531       0.75813863550054       2.03041955485468
H         3.31514483370667       1.53679779618111       0.82486135629505
H         3.27013471751336      -0.52527621551966      -0.58906732397536
H         2.29807846355492      -1.36395254939383       0.62949290266456
H         5.10290757727959      -0.22386580418510       1.09241667882452
H         4.12704092985253      -1.03601803226022       2.32578472261867
H         5.06958328391581      -2.32434504425116      -0.31987560927331
H         5.79181394226546      -2.62626679469744       1.28027929104981
H         4.12475849189292      -3.14940998316925       0.94153239208244
B         1.70431686587094       0.97665980665407      -3.73508637336867
F         2.33911181006516       0.02616388618941      -2.84738660989810
F         1.50768594466432       2.19057888987308      -2.98563774884079
F         0.41525161117431       0.46277850257885      -4.08827493980470
F         2.49113471962149       1.20060330149899      -4.85992101655172
