43
C11H21F2N3O4S2 optimized with DFTB in AMS.
N        -0.72338842163294       1.91296977144337       0.04368890080644
N        -1.76839977353978       0.20415333538672      -0.74136984409397
C         1.45801327216648       2.58440658350108       0.95072761010820
C         2.23601618487711       1.46276582725587       0.25673027320077
C         0.22972201118027       3.01377544037052       0.14484074394512
C         3.48371844996966       1.07443450233962       1.05431900927309
C         4.26093995279359      -0.03988657749096       0.34600081376756
C        -0.82297172866175       1.10038062398643      -1.00237290044004
C        -1.62104345914281       1.52390813155439       1.00120236227263
C        -2.28583456867387       0.44714164382792       0.50329809409502
C        -2.22551076365502      -0.80381497134957      -1.69557118079395
C         5.51230918600061      -0.43178164451837       1.12950745413621
C        -3.67156238312200      -0.53797841393915      -2.09591412986709
H         2.09996174389658       3.46264625778465       1.06326386380503
H         1.14410393960690       2.26393410898995       1.94959371843692
H         2.52901997913688       1.79266356939863      -0.74409282434506
H         1.58889449758633       0.58609344556309       0.14315069082722
H        -0.27576241520388       3.85278557230718       0.62897648151714
H         0.50893999666975       3.29530074398117      -0.87340188175156
H         3.19011568378208       0.73906072416539       2.05562787756397
H         4.12838183637758       1.95205928752926       1.17223240945159
H         4.54837582302895       0.29871757245218      -0.65454898114049
H         3.61426368705915      -0.91628963157065       0.22935223139913
H        -0.24890593143997       1.16489387583905      -1.90807725893440
H        -1.71976941410703       2.04071616386367       1.93975061195110
H        -3.06796012438987      -0.15593773333672       0.92988032675989
H        -1.56832771268733      -0.73769726441645      -2.56647858135005
H        -2.11973935119998      -1.78908668081183      -1.23136630760947
H         5.24491395243927      -0.78997352657308       2.12487327610027
H         6.17971914670736       0.42439724836084       1.23678552190649
H         6.04675456419172      -1.22518183535144       0.60681180411659
H        -4.33221859801483      -0.60505069716590      -1.23207087176950
H        -3.97462577392605      -1.28041273225503      -2.83256372660621
H        -3.75931583332118       0.45345754868256      -2.53697085254883
N        -0.12371722989496       2.66130841639959      -4.78696266773324
S        -1.42590078889564       2.94797476743297      -3.93174655584288
S         0.99803339031928       1.77079934677865      -4.11578821113993
F        -0.89318680955598       3.75662811361997      -2.60164158648826
F         0.27030795387972       0.31600449104833      -3.82735031102178
O        -2.23412458887821       3.88725363522968      -4.62464232811951
O        -2.05895825473460       1.79345970595657      -3.34891410191873
O         1.40318717399096       2.16539509979838      -2.79075032258563
O         2.00227127121740       1.48577582903151      -5.07719673583980
