54
C16H36ClN optimized with ForceField in AMS.
N         0.00151048385874       0.00047778216597      -0.01711202486790
C         0.83940733760292      -1.02332404553717       0.70552388354520
C        -0.87740605150366       0.69403998435409       0.98999223852587
C        -0.81676009926603      -0.70567355132251      -1.06700780072238
C         0.85910168949697       1.03771618736413      -0.69348032616221
C         1.88451421640120      -0.46778848632982       1.70840824486981
C        -1.93993823403502       1.66850897491460       0.41846075539978
C        -1.88957155019432      -1.69472929862184      -0.54098756361419
C         1.95253544330810       0.49866780013725      -1.65057259153739
C         2.64541526011541      -1.61870269956234       2.38341786449224
C        -2.74556243287700       2.30363312507844       1.56126660716464
C        -2.63866961430351      -2.35065684983590      -1.70943384832125
C         2.73996616228982       1.66116259810531      -2.27144054817326
C         3.67633714689093      -1.09762440374143       3.38112567542388
C        -3.79427681881569       3.27872201526006       1.03476325506931
C        -3.69177900769962      -3.33634203728193      -1.21024217018316
C         3.81111113060366       1.15526292243222      -3.23288615826913
H         1.36787865046603      -1.67968728709940      -0.02145454863612
H         0.18675456401392      -1.70333591913013       1.29439813623193
H        -0.25519175058411       1.29881241804045       1.68383129632656
H        -1.39895927328563      -0.05145470041133       1.63017734984255
H        -0.15358665751728      -1.30118896293045      -1.73069151454535
H        -1.31672685497348       0.03122887876861      -1.73463567037384
H         1.34763013713489       1.69406986668099       0.06119870895552
H         0.22615085774595       1.71506864728859      -1.30604038492256
H         1.38728805064952       0.12091124491454       2.50516055642259
H         2.62216307755637       0.18124694321653       1.19503127321678
H        -2.64625320012722       1.13962709002924      -0.25297118968464
H        -1.45427953163538       2.48779893594149      -0.14921389765032
H        -2.63228259094683      -1.17387529104237       0.09614800523539
H        -1.41635422091143      -2.50307743978954       0.05203894033933
H         1.49495432401112      -0.08016716406035      -2.47803403071828
H         2.66681984626167      -0.15553920309161      -1.11132875234128
H         3.16690234569102      -2.22741716999865       1.61284852135946
H         1.92880081935680      -2.27594602471028       2.92339560414577
H        -2.05909909735528       2.85374627820949       2.24185403647185
H        -3.25645094553781       1.50837574237396       2.14667143244281
H        -1.91837310599859      -2.89659874567527      -2.35752052250658
H        -3.13887355976087      -1.56875700920469      -2.32142500932863
H         3.22801812700661       2.25569805259806      -1.46850131735108
H         2.04660528960034       2.32826304635639      -2.82950542743866
H         3.17788167109533      -0.50950002160512       4.18108660231819
H         4.42441332694453      -0.45826203752721       2.86599930731030
H         4.20548883113095      -1.95440898502644       3.84997275862826
H        -4.51623598252616       2.75153590219935       0.37567579182749
H        -3.30831265605605       4.10064737731554       0.46696685434332
H        -4.35043420224066       3.72000789806071       1.88908804117694
H        -4.44373722972399      -2.81301142027198      -0.58207426264535
H        -3.21434017580437      -4.14413882482552      -0.61528982950408
H        -4.21162061661887      -3.79595589166130      -2.07742773727868
H         3.34580477420511       0.57576649025642      -4.05869152635849
H         4.53841888091518       0.51055065426362      -2.69522463687818
H         4.35611468223248       2.01879918400663      -3.66962870678079
Cl       -1.02372113288672       0.55880571616191       4.64333965710808
