27
C7H13BF4N2 optimized with ADF in AMS.
N         1.89290527923475       0.37390470302487      -1.03903704797609
N        -0.18435436165873       0.66036512015250      -0.47887101276808
C         0.82744099824566      -0.21700390992150      -0.49114211628643
C         3.23615387956459      -0.21182494348563      -1.19720370953734
C        -1.48562331793070       0.42957926459624       0.16536933503627
C         1.56392868136676       1.67520345637292      -1.35355334467286
C         0.26198070207681       1.85662805631654      -0.99824727767575
C         3.38958275297632      -1.51560936589825      -0.44184465595804
C        -1.44411561254074       0.75763348786001       1.64825917168746
H         0.79274900789929      -1.21541557509239      -0.08252703188302
H         3.41366924113549      -0.33679935988669      -2.27763576185081
H         3.92428076974675       0.53723510002631      -0.78237744273266
H        -2.21707954804313       1.04634409897778      -0.37845757114026
H        -1.74851925002370      -0.62425676374600      -0.01416575350295
H         2.29477659512052       2.36540181952559      -1.75344767140105
H        -0.36463158877561       2.73800733632868      -1.02604052291604
H         3.15780800338651      -1.35725338773997       0.62185112849067
H         4.43573019514435      -1.84236993916988      -0.52469952316066
H         2.75762021420639      -2.31516575395464      -0.85855464836533
H        -0.68485523031911       0.14714605856586       2.15645599266549
H        -2.43418495706618       0.56456240958457       2.08671683234157
H        -1.16621283917237       1.80774363328924       1.80831269645719
B         2.28027670240879       1.21517411149726       2.17680368629554
F         3.40776037028797       1.29382163274467       1.29808159872119
F         1.30338898117521       2.16184033807373       1.75121002223588
F         2.65772022508601       1.43308635723310       3.50293143557034
F         1.70821116456807      -0.11520383747492       2.04523465612579
