63
C17H32F6N2O4S2 optimized with DFTB in AMS.
N        -0.91812411645198       1.03034753951770       0.28608570390933
C        -1.21431571509618       2.02621603196558       1.37575799501347
C        -2.09591638596555       0.97576237669384      -0.64064527538547
C         0.25086751906556       1.53755263313498      -0.52289716869991
C        -0.61201632656547      -0.30729057841116       0.89955495162660
C        -2.51152077139182       1.74669054922391       2.12131373279961
C        -3.39888863850757       0.63592689456242       0.07376519907361
C        -3.69592050728070       1.66494988491482       1.16383785764782
C         1.59226476334225       1.54192292981475       0.20623486959811
C        -0.31318633930459      -1.42679763783783      -0.09175022386064
C         2.63334867014349       2.28551270995169      -0.63763697757202
C         0.08829704256336      -2.67879784941266       0.69954676282441
C         3.98661028239413       2.30772579509222       0.08090185763584
C         0.40962368331071      -3.84630819267654      -0.23772651124294
C         5.03317170755103       3.06700564407808      -0.73122987456849
C         0.81582405985882      -5.08992102840215       0.55073959840494
H        -1.25734072381648       3.01038511955775       0.90143908868833
H        -0.38149856690513       2.00709758713996       2.07625860749702
H        -1.87721622897978       0.24389146835756      -1.42040353553539
H        -2.17617633458870       1.96336131094310      -1.10429447733599
H        -0.00814791449069       2.55469329897606      -0.82986962578180
H         0.31317991545367       0.91832354432802      -1.42162965355381
H        -1.46120224620143      -0.58667101716382       1.52275328119019
H         0.24406592548806      -0.15845226666168       1.55668846315272
H        -2.65079676342008       2.56641885763136       2.83059019131648
H        -2.42907008629054       0.82580387065134       2.70192350032613
H        -3.35082409911551      -0.36815862480351       0.50259587221836
H        -4.19453204088352       0.64053418100777      -0.67608788905575
H        -3.87480464992265       2.64265660482458       0.70429841010537
H        -4.59633847756656       1.37433717682333       1.70937493209240
H         1.50358640601714       2.03542466238162       1.17417090637779
H         1.93574601830836       0.52009023225989       0.38130277451851
H        -1.19160070633328      -1.65296037243985      -0.70351930505776
H         0.50517715259562      -1.14832011946929      -0.76102219051655
H         2.29386859627878       3.31221647738507      -0.81318967721204
H         2.73798032785301       1.79528844075068      -1.61218730878300
H         0.96354951478440      -2.45055886876336       1.31567477020005
H        -0.72891824000258      -2.95977383747550       1.37147641246380
H         4.32544046276450       1.27991742015827       0.24624842219795
H         3.86753756254814       2.78263413915190       1.05909772270628
H         1.22409886546321      -3.55846763018182      -0.91127851734404
H        -0.46846881832986      -4.07306925796599      -0.85232707512348
H         5.98471405649347       3.06892632594962      -0.19983417053727
H         5.17953093641633       2.59731030703265      -1.70522373193196
H         4.72051337478513       4.10040700396945      -0.88731081251869
H         1.04078653212584      -5.90809369726665      -0.13343354642150
H         1.70131929843348      -4.88660234456971       1.15391687855788
H         0.00821519903469      -5.40226482916783       1.21383318202130
N        -0.25571283490730       2.11633306207498       4.47933943051010
S         0.40484283534419       0.69564532512230       4.16793228318962
S         0.72021972655139       3.30234880408720       4.97043475707301
C         1.20460571621778      -0.07569059241339       5.68736149531748
C         1.61949158352200       3.96222987397411       3.45659035770354
O        -0.70184129181847      -0.19470530697711       3.86532249495296
O         1.46802087710975       0.73372206145340       3.17018138748491
O         1.76888048009997       2.88622709099434       5.86285397806765
O        -0.13043473177937       4.39806296176540       5.34045733760984
F         1.05867002282871      -1.38924603343988       5.58579830144237
F         0.60555482095412       0.33755419749236       6.78610243519048
F         2.48804323183528       0.20569486594512       5.73828105121487
F         1.97740287518601       5.21633655533686       3.66185784668076
F         0.79754336362616       3.93588806926622       2.39426907988098
F         2.69463186956727       3.25574012395749       3.15326611915560
