44
C12H23F6N2P optimized with ADF in AMS.
N         0.11607470443430       2.15603649421117       1.90622597673760
N        -1.92864558537584       1.47866702767011       1.66446076598370
C         1.46082361138448       2.64590310620784       1.56540487004157
C         2.43071195706283       1.50460488217135       1.27230643510376
C        -3.18758743260012       1.08362759292934       1.01690516415321
C         2.02614075119928       0.64891669961870       0.07388190027094
C        -3.20446296645886      -0.39654815972107       0.64798820628243
C        -0.83779717697685       1.88879191762931       1.00650247322393
C        -0.37542176435844       1.90401132743594       3.17158671552802
C        -1.66293486533522       1.47650052662750       3.02013754502524
C         3.07911986954528      -0.39183298759559      -0.30062342487591
C        -2.14472289528053      -0.78951543018740      -0.37995603190601
C         2.64561350263894      -1.23826637783056      -1.49469588795683
C        -2.26810043340844      -2.25016929910091      -0.80590695428300
H         1.79840003105445       3.25505442904206       2.41593465829281
H         1.33424575135470       3.30320351923980       0.69215221305742
H         3.41285574507797       1.97148222032006       1.07861673203729
H         2.54960271484567       0.87353282673571       2.17211150674721
H        -3.99659172462677       1.33116457847652       1.71954369427859
H        -3.28985640574176       1.72507797296597       0.12837373247401
H         1.82520110197084       1.30297069044846      -0.79318656587815
H         1.08007075911587       0.12181510915665       0.29463043691494
H        -4.20954787213200      -0.60990149433602       0.24248097382427
H        -3.09512106868309      -1.01042884356120       1.56118889994331
H        -0.74776880036301       2.02761439104279      -0.06594681974385
H         0.21623555752615       2.07411515292757       4.06234264278803
H        -2.41193798820624       1.20266991124851       3.75249332137929
H         3.28211249916842      -1.04419632480058       0.56879724399807
H         4.02980356176420       0.12070305327543      -0.53481947951078
H        -2.22662576554347      -0.12844366658107      -1.26136640942935
H        -1.13864062350491      -0.62435654769626       0.04220645474432
H         2.47047641602883      -0.60401460163988      -2.37858622337013
H         1.70608871985020      -1.77280163269145      -1.27647430637703
H         3.40826964294841      -1.98629250322698      -1.75565621899403
H        -2.15148473452387      -2.92648954570622       0.05647446813077
H        -1.49850796969784      -2.50899399309660      -1.54762012909345
H        -3.25335959727619      -2.44798324307877      -1.25772923178594
P        -1.01051434131030       4.27162485178112      -1.63061559152107
F        -0.99938517673508       4.46860898414217       0.03312941186849
F         0.21997834816074       3.11544437539036      -1.44132644996862
F        -2.12162568181212       3.01492381768090      -1.42298734126913
F        -1.00551522048261       3.98829194186030      -3.24005074125456
F        -2.23340800975781       5.34297028829453      -1.76128260475878
F         0.12412237015983       5.43974041712038      -1.77698828375259
