26
C8H14N2O2 optimized with DFTB in AMS.
N         0.49003337828120       0.16150738253111       0.03628737075814
N         1.59805639544065       0.42878602686566       1.88409361861195
C         0.03720997829143      -0.46696942582303      -1.19575217139832
C         1.24882565929762      -0.49645580497923       0.95577673642450
C         0.64073393402897       1.53090108656214       0.23217381984174
C         1.33532617481924       1.69596696202974       1.37072685839611
C        -1.26719532312122      -1.22484556504334      -0.96276897059349
C         2.57860580292334       0.18337475758754       2.92744375810848
H        -0.10676272178794       0.31627949011060      -1.94459356173335
H         0.82448268546657      -1.14731157142973      -1.53716545231957
H         1.04050120860208      -1.52003426873529       1.23378330726676
H         0.21237425553369       2.24474667308914      -0.44909021522265
H         1.64923054024168       2.58434337360874       1.88863075280837
H        -1.12241488384316      -2.01091057510872      -0.22201576442863
H        -1.59789051276713      -1.67809833446754      -1.89654914389638
H        -2.04074101052260      -0.54538818212966      -0.60497895635389
H         2.53946983156512      -0.86854675018585       3.20731947834392
H         3.57239208052888       0.43030362439162       2.54563272225225
H         2.34625603304166       0.80514312496592       3.79201553063733
C         4.78004061672565      -0.79258274155088      -1.22753009713795
C         3.76637974265872      -0.26621153080754      -0.19886646824410
O         2.77348046555882      -1.06211550755251      -0.03137104746019
O         3.95961538778448       0.80687585783892       0.34735994299646
H         4.88500752201874      -1.87144250624255      -1.13604384126368
H         4.40394374043585      -0.55907133415805      -2.22300792569304
H         5.73958762309763      -0.30216775846723      -1.08109950920078
