56
C16H19F18N2P optimized with DFTB in AMS.
N         3.29307678138229       0.02883652868807      -0.38206006786318
N         3.77665454338640       2.10342860126569      -0.08567257112431
C         1.41746412076055      -1.51903564848836      -0.76375230195020
C         0.48342728007829      -0.47688590881855      -1.38526831638681
C         2.89064501300114      -1.21069529679506      -1.03882153151076
C        -0.98644597661499      -0.83420201470979      -1.14580252774994
C        -1.91502485863963       0.21019251855014      -1.77362811954987
C         3.28762271943890       1.22733221898819      -0.95798410956617
C         3.78672590740354       0.14179442922344       0.88832416682951
C        -3.38374674196558      -0.13989086590011      -1.54218634404805
C         4.09618795519911       1.45223174373542       1.07522683552113
C         4.01190925645268       3.51279787490993      -0.35789343482286
H         1.25400057655436      -1.57295742840156       0.31729162675326
H         1.20305612483994      -2.50402006167252      -1.18775230477956
H         0.67478239529395      -0.41545849658073      -2.46090149909865
H         0.69378966196269       0.50690338262299      -0.95111532250008
H         3.07599936966272      -1.08920521502304      -2.10879331620163
H         3.52829292153848      -2.00956177848573      -0.65326622164585
H        -1.19630352724641      -1.81811764891187      -1.57848620689396
H        -1.17651349663925      -0.89537633173959      -0.06848328964296
H        -1.70151128648347       1.19342853189110      -1.34043928193769
H        -1.71929384120402       0.26928372677470      -2.84925294359845
H         2.96559627666182       1.44268707390046      -1.96037253859938
H         3.89443187889639      -0.70802116756076       1.53916451179315
H         4.51955317370691       1.96479808785571       1.92108595354020
H        -3.60330227247358      -0.18411122220050      -0.47443811042867
H        -4.02343039507219       0.61616796383215      -1.99753091147386
H        -3.62016747988936      -1.10804902361333      -1.98553551630537
H         5.02076543624245       3.76703477854277      -0.03618357007966
H         3.91689016539290       3.67896371743809      -1.42897714382176
H         3.28345602445214       4.11633608959389       0.18468221394332
P         5.40780867206786       1.36488191764101      -4.04779691636806
F         4.71085646876259       0.12048005440587      -3.08316281852747
F         4.34883596377872       2.45789653739188      -3.24135531925885
F         6.43365138177399       0.29360828378060      -4.81356658256547
C         6.72228275648795       1.52061631708748      -2.59146266804070
C         4.00393267939685       0.88244364486213      -5.33578037219508
C         6.08172204584007       2.94734174069660      -5.03127532816464
C         7.03452702390919       0.25358838969924      -1.74582983156656
C         2.55118615449206       1.35039954352471      -5.05974561283841
C         7.17123832557897       2.82918966881199      -6.13165360286781
F         6.34902088492474       2.45605411519417      -1.68339912665848
F         7.89325955628883       1.91766871707673      -3.11075890664238
F         3.94119952094486      -0.46062613931915      -5.39252172006649
F         4.32569819628887       1.30867742488167      -6.56680048362956
F         6.54290654699565       3.82537065260633      -4.11795737009500
F         5.00957432869948       3.52650395192356      -5.60869088473112
F         8.15784256703608       0.43155302122942      -1.04878121969934
F         7.17221989371512      -0.84335860961889      -2.47226962665477
F         6.05456045654036       0.03876958018602      -0.85000815483328
F         1.71031600875782       0.84230254498731      -5.95704148360298
F         2.14302135492109       0.91338089497053      -3.84939372767611
F         2.42082009140022       2.66873603316569      -5.07294080976526
F         7.40405414496082       4.02605642522276      -6.67358469238249
F         6.78805174920114       2.00702780274608      -7.10248868584914
F         8.31653114965742       2.37698403513502      -5.63180448962139
