43
C13H28ClN optimized with DFTB in AMS.
N        -1.27341571957915       0.33091797578136      -0.10178310078942
C        -2.53774477087844       0.44082520396101      -0.90374645625110
C        -0.86623469932386      -1.11457317309045      -0.03144732368822
C        -0.21790767639996       1.09755086862198      -0.86383155045085
C        -1.46193332117507       0.87331722267772       1.29277029541943
C        -3.67267824033425      -0.43086256354361      -0.37509170262836
C        -1.95995470892439      -2.00561555452577       0.53687193895140
C        -3.24315926055306      -1.89447451617457      -0.28263774246207
C         1.16808888460871       1.14799511237556      -0.21092771074766
C        -1.56759997454865       2.38652610738582       1.37635718589541
C         2.16618111961311       0.17467563838473      -0.84917632377945
C         3.47279234180621       0.15762295281257      -0.04866922122330
C         4.47843087775247      -0.82410280383966      -0.65542579028226
C         5.77296515277544      -0.85998030689727       0.15512320352685
H        -2.29129790771115       0.13779313788940      -1.92543172552738
H        -2.83659886437279       1.49117690818740      -0.91513424850262
H         0.01889158459147      -1.17331388607675       0.61174760741811
H        -0.61633127808041      -1.42619377520369      -1.04916275158936
H        -0.61243517360044       2.10699200074390      -0.99973516883613
H        -0.15538590673651       0.63019258306678      -1.85105157414730
H        -2.37139545870630       0.42291832837036       1.69096855376579
H        -0.61739011246718       0.51429240999204       1.89402394326210
H        -4.51018835495637      -0.32933760424318      -1.07095017650512
H        -4.01121042215522      -0.07489891414161       0.60122170790346
H        -2.15066102994702      -1.75476771672142       1.58292770255061
H        -1.58804310249808      -3.03271120065351       0.50704930351707
H        -4.03839081054475      -2.48057260925768       0.18385707142933
H        -3.07378423680537      -2.28982956647297      -1.28977080669424
H         1.54832541013321       2.16830996300755      -0.32004402019243
H         1.10722639258557       0.93395266247948       0.85671347489149
H        -0.62147783922409       2.87085067085912       1.14156761901354
H        -2.34499323863659       2.78625026322277       0.72500799231252
H        -1.82493649995719       2.63490889092500       2.40602642955790
H         2.36092811001707       0.47099514226936      -1.88662326246496
H         1.74491180184257      -0.83479284028659      -0.86570172003858
H         3.25010513470336      -0.13295756155699       0.98235369891951
H         3.90496770506600       1.16409851479478      -0.02970241084693
H         4.03799550485098      -1.82670352810121      -0.67920732460625
H         4.70169012042202      -0.53252506933854      -1.68836964516950
H         5.56970697916826      -1.16617089116720       1.18173519887515
H         6.47367124008166      -1.56877577241292      -0.28737852509199
H         6.24043680596831       0.12582322842291       0.17352718866796
Cl        1.03160052772986      -0.79444211942602       2.53401830003781
