37
C9H17F2N3O4S2 optimized with ADF in AMS.
N         1.84027216053204      -0.19809701339559       1.28487136281630
N         0.70177724356782       1.42580041858319       0.40435308467788
C         2.59031113126373      -1.45233123737179       1.44758446206417
C        -0.08392682883463       2.21983776681825      -0.54777686177854
C         1.19486333726427       0.20137165663218       0.18115339286137
C         4.03415711826478      -1.33493138718844       0.96481544204059
C        -1.57377417074095       2.18361727513959      -0.21851630452567
C         1.78257037042468       0.81131594146864       2.22327742203809
C         1.05793067474241       1.82599095289704       1.67358234739302
C         4.16536404449628      -1.39283445297895      -0.55260902130734
C        -2.18448002398689       0.78862137251129      -0.31332022872369
H         2.04169985043654      -2.23419078069190       0.89810479611640
H         2.53653081183370      -1.69809859440441       2.51868157805758
H         0.12901801300218       1.81389504913329      -1.54696806413316
H         0.32654850702275       3.24067671648203      -0.52255333117741
H         1.12230160260705      -0.34747308289778      -0.74801618670866
H         4.45998926576111      -0.39407756400050       1.35400523443492
H         4.59487409370056      -2.16565025106005       1.42837440312771
H        -1.73674670461009       2.60104577715349       0.79063429870458
H        -2.07255291066183       2.86937148528681      -0.92401267908223
H         2.31116236769539       0.74513946324556       3.16553580617770
H         0.82548167116107       2.81386003262949       2.04946028672368
H         3.62708013083217      -0.56833919133876      -1.04154973463007
H         3.78945380919846      -2.35382926122367      -0.94392282294758
H         5.22041930015579      -1.29877612780091      -0.84910431956785
H        -1.71946752341854       0.09573895345126       0.40569739181990
H        -2.06185313521295       0.36841537409576      -1.32476752502091
H        -3.26193577188397       0.81702277581860      -0.09147919606555
N         3.71318569435327       1.98109408692502      -0.07028779701338
S         4.43304227745675       2.94968821345359       0.99902135837760
S         3.34346594846447       2.51210005100106      -1.53847473030032
F         3.19844787810928       3.98325692677759       1.44593062297133
F         4.78523144425761       2.59139706122411      -2.31537106946718
O         4.64975631236512       2.14778166481700       2.19322901286122
O         5.45863354900511       3.83020718701887       0.48482850006090
O         2.80131564476527       3.85705090910492      -1.61561216897332
O         2.63793695321020       1.42136675378412      -2.20651044270214
