26
C8H14N2O2 optimized with ForceField in AMS.
N        -0.52015346857329       0.17412534533018      -0.32046779174974
N         1.67164380336961      -0.07421096039551      -0.04465152043952
C        -1.91963619963210      -0.12308085532354      -0.61592953862820
C         0.51493706327448      -0.68685214704950      -0.36206076024271
C        -0.00064019575238       1.36823936313659       0.03072677052146
C         1.36052600519481       1.21321313263528       0.20248916662478
C        -2.74765370682673      -0.11224972974701       0.66365867246528
C         2.99639718538803      -0.67712112841627       0.02487052727091
H        -2.31775472092805       0.63015041549470      -1.32963358659778
H        -2.00401874820315      -1.12525132094425      -1.09055411394251
H         0.42587436164841      -1.73650181055017      -0.60737520008434
H        -0.56728753047692       2.28299171917076       0.14825724953526
H         2.06891893181151       1.98120307918304       0.48550665353867
H        -2.36395178863787      -0.87922755805391       1.36971016004277
H        -3.80693713933046      -0.34381969420403       0.42481143112914
H        -2.69908806422947       0.88652574094661       1.14665682678682
H         2.94565973852294      -1.75907923950382      -0.22265710917088
H         3.67345652366703      -0.17499731491161      -0.69755059238826
H         3.40504199332712      -0.56208366889283       1.05083862416363
C         1.97064143967882      -2.99605416245349      -3.36586062869995
C         0.98421815535630      -3.76774489167333      -2.54771176326924
O         1.33252569391163      -4.30335695404948      -1.50763519404774
O        -0.17524304989085      -3.85856143115648      -2.91717085898029
H         2.97635447071599      -3.02075764338092      -2.89411629855028
H         2.03980286397728      -3.43987911390950      -4.38134222616475
H         1.63995695273730      -1.93941454288150      -3.45004204432253
