58
C16H34F6NP optimized with DFTB in AMS.
N         0.03759584770216       1.66976966766681      -0.66495269102211
C        -0.63428481611612       2.33183392167377      -1.83609318192902
C         0.76517972173938       2.78605376793753       0.05341082270830
C        -0.96917412615480       1.05837253692154       0.25816447704395
C         1.01089661315576       0.64759990100698      -1.19567398574898
C         0.30555575967166       3.45661202536710      -2.23886453092107
C         0.83334424670840       3.97673725658257      -0.90379698860580
C        -1.78268097792100      -0.07358198852183      -0.36582980829192
C         1.75859769692926      -0.15019833914695      -0.13279652179810
C        -2.85170703415671      -0.54499216375076       0.62736246059790
C         2.80151218437281      -1.03416582895298      -0.82766063463399
C        -3.67492798819763      -1.69607599509000       0.04122075608078
C         3.60108018841901      -1.84505946647976       0.19534600764754
C        -4.74439750629660      -2.17133135950613       1.02987614499892
C         4.65458556825095      -2.71277305455712      -0.50098697519286
C        -5.56541044757148      -3.32118371494209       0.44912138636365
C         5.47571071285758      -3.51152477935774       0.50952990743662
H        -0.80468229845446       1.59893729313369      -2.62411157209859
H        -1.59362324554490       2.72850292717980      -1.49307304371472
H         0.21055595287142       3.03153984238891       0.96041922285065
H         1.75664251332645       2.43342344733781       0.32931521603078
H        -0.42853966758024       0.69686034340172       1.13586420129985
H        -1.63910329052073       1.86309404561366       0.57406252434486
H         0.44648743517726      -0.02862264270479      -1.84179897955734
H         1.72072125649560       1.19867086642039      -1.81158982870251
H         1.12399257681631       3.08055320932361      -2.85505768180003
H        -0.22852315982296       4.22605052417634      -2.79726302485001
H         0.20763863966374       4.79192983179082      -0.53215426383180
H         1.85853747157077       4.33401603388573      -1.00144367378280
H        -2.26617386054082       0.27022274731875      -1.28421268576244
H        -1.13416118153777      -0.91594690164719      -0.61795381821913
H         2.26961243208834       0.51983400285705       0.56220940165005
H         1.06930659859964      -0.77851045130959       0.44079221393855
H        -2.36678726039847      -0.87423984835629       1.55239223398424
H        -3.51356471560383       0.29167391164706       0.87529429950884
H         3.48558555903042      -0.40304734098174      -1.40011710549808
H         2.29849253136892      -1.71142265607284      -1.52643059325579
H        -4.15413084682387      -1.36441141898026      -0.88614024404110
H        -3.00859317430017      -2.52921375806492      -0.20633650617713
H         4.09624258097962      -1.16031582852547       0.89192677734299
H         2.92285503858373      -2.48145196515427       0.77593393224006
H        -5.40885818441676      -1.33612921789858       1.27567882900912
H        -4.26199289763958      -2.49923975574500       1.95675935717220
H         4.15929375283574      -3.40143832042959      -1.19407558421859
H         5.32098800913782      -2.07078596690600      -1.08575623851835
H        -6.06970539721060      -3.00710721808549      -0.46564477139482
H        -6.31863524791985      -3.64164748266523       1.16883465667530
H        -4.92225598608378      -4.17097600018532       0.21703700355063
H         4.83126005491855      -4.17309661126934       1.09093573328455
H         6.21832458621907      -4.11810424040794      -0.00927343346342
H         5.99376713109569      -2.84069178101007       1.19618136474042
P         4.29574875745069       2.58570312632979      -2.32462014410764
F         5.51470015839759       3.22168931381250      -1.45629973470120
F         4.96027610733961       1.08732279130168      -2.23916754825360
F         3.45905601836580       2.25632802144256      -0.88946013512726
F         2.99026304188251       1.93103415799748      -3.15987607355683
F         3.53204585604389       4.05478344571490      -2.37490031464292
F         5.04788356094694       2.89225489437463      -3.72947601868084
