44
C12H24F3NO3S optimized with DFTB in AMS.
N         2.28287194608993       0.50710219702043       0.01121010292862
C         2.59862260782646      -0.85564313690026       0.53274116083853
C         3.41001160062771       0.79975063240632      -0.93137323019048
C         0.98247040058487       0.54171102052394      -0.74205155478999
C         4.11594168916715      -0.86587851188863       0.70926916109636
C         4.64699664770429       0.17608292116291      -0.28969667834932
C         2.29393243401527       1.50113244970536       1.12007996015294
C        -0.25213550611228       0.50033722237740       0.15059225381714
C        -1.50339575182567       0.43510111296264      -0.73302748734382
C        -2.77618742826605       0.43998452822998       0.11807643293390
C        -4.02876406516671       0.39099615928188      -0.76240038715916
C        -5.30239227793005       0.39779105802664       0.08117596364720
H         2.28858919093063      -1.58326825553320      -0.22110767276206
H         2.04973464526336      -1.03646519594408       1.45671187540051
H         3.47934352528435       1.87764606467923      -1.07813657002044
H         3.17394324049971       0.32639682344144      -1.88596234309496
H         0.99311054558675      -0.30967449266478      -1.42818767771814
H         0.98525094257161       1.46244850414465      -1.32751076391018
H         4.51285344893449      -1.86145966394014       0.50488773367807
H         4.38677870478231      -0.59540276621536       1.73192286308715
H         5.24530545702221       0.93224331879593       0.22167527959383
H         5.27120839964813      -0.28837244422914      -1.05469218733091
H         1.65485573111370       1.14869894472004       1.92606747511097
H         3.31196949972284       1.61974737360969       1.48222493519495
H         1.92198232990592       2.45023969458649       0.73626160704273
H        -0.21895788846878      -0.36490360563981       0.82074971052768
H        -0.30032348523191       1.41032273671809       0.75330101460522
H        -1.47344940092625      -0.47069846593050      -1.34860257025872
H        -1.50891168691838       1.29970295060157      -1.40373175736757
H        -2.79706085942020       1.34604626454828       0.73250103943840
H        -2.76803511044168      -0.42266110369003       0.79402322808716
H        -4.03301285498855       1.25502196383027      -1.43472296295428
H        -4.00515423162976      -0.51358677155776      -1.37984781452035
H        -5.35343049588538       1.30257610797604       0.68825928172778
H        -6.17914463712185       0.36383014657528      -0.56581802625326
H        -5.32676043197131      -0.46751708813019       0.74538564244646
S         1.33778035179196       4.09253858630390      -1.50352360379333
O         0.66109840027331       5.08827294201256      -2.28418440808967
O         2.01864742076756       3.04554171580117      -2.26070141806844
O         0.59537960182118       3.57053631883480      -0.35936263975758
C         2.76311482934620       4.95995124527811      -0.68968083626117
F         2.37157805919667       5.83731504260045       0.22310370625625
F         3.55132804498022       5.57344858124298      -1.55866901110645
F         3.50932595084606       4.02713011426542      -0.05548480501161
