29
C9H17ClN2 optimized with DFTB in AMS.
N        -0.12670550044681      -1.37161945987161       0.30699856084359
N        -2.05589158579977      -0.42045853598795       0.22846849559702
C         1.22953943170198      -1.73111983209736       0.71359473783901
C         2.25451524933275      -0.92417946511912      -0.08490288838031
C         2.09999844390316       0.58644492077884       0.10209544536060
C        -0.92496325864546      -0.51644147210406       0.93689197719402
C        -0.73810777313124      -1.82018543014783      -0.82915832797161
C        -1.95507769111523      -1.21969753578036      -0.88233766300967
C        -3.16995657357316       0.46699091060510       0.53233044587083
C         3.16434491697015       1.34754178590858      -0.68693947989640
C        -2.96473284096259       1.81071863501870      -0.16133613175844
H         1.32078456361901      -1.55064386118317       1.78786283313232
H         1.36478424209234      -2.79342597137244       0.48619259883464
H         2.15871309748710      -1.19219043189009      -1.14026207911176
H         3.24591331190436      -1.24011371059581       0.25061105215358
H         1.10591401637754       0.90088010501725      -0.23711193359199
H         2.18296984421192       0.83742668188147       1.16635586343092
H        -0.71583063730621      -0.01039500474951       1.86354000611486
H        -0.22633551684497      -2.53835408008787      -1.46947612355090
H        -4.08851448697865      -0.01249724232699       0.18424993802315
H        -3.22127670708643       0.59330481833278       1.61719737164311
H        -2.75270715262561      -1.29755885650240      -1.59962835964489
H         3.08358073145547       1.11883264466801      -1.74995725305729
H         4.16221555256998       1.06878114636631      -0.34694511368815
H         3.03638156941994       2.42160169906303      -0.54979128916276
H        -2.04317090182515       2.27769059366212       0.18461832096993
H        -3.80307108559803       2.46694077356284       0.06709904250158
H        -2.90540368488560       1.67322726102302      -1.24030518038802
Cl        1.51239717907917      -3.70930491777146      -1.73239858789696
