38
C8H20F2N2O4S2 optimized with DFTB in AMS.
N        -0.49115510865047       0.14838919763006      -0.19472129464534
C        -1.22314222420011      -0.27189209062510       1.05577442507519
C        -1.43955626260476       0.73764356330292      -1.21117207522482
C         0.16397657718858      -1.07176707718832      -0.79581923352435
C         0.52179205160685       1.19850047420492       0.16848397991991
C        -2.37077484499511      -1.24736203583611       0.84422446782445
C        -2.30693929572342       1.88299266265302      -0.71766040877109
C         1.05033559731893      -0.80220157791640      -2.00113545706939
C         1.65529369866512       0.73081359392099       1.07010462188888
H        -0.48067804452379      -0.72732566277508       1.71504635834266
H        -1.58974475478400       0.64118608516575       1.53064936463872
H        -0.83426088232554       1.07506256871603      -2.05374893023016
H        -2.07318094649600      -0.07954670937293      -1.55272645200305
H         0.74077986727998      -1.54934229991571      -0.00045046983575
H        -0.63928471466226      -1.74695649265063      -1.09266831425688
H         0.92995031583918       1.58657138560529      -0.76727577958657
H        -0.02336239953023       2.00429232114967       0.66457003424737
H        -2.81207202468034      -1.44249339274070       1.82168120646216
H        -3.14402332209534      -0.84146545310882       0.19572334152840
H        -2.03094317754943      -2.19293503219298       0.42730876291566
H        -2.91682284018973       2.19642713859302      -1.56529146504483
H        -2.98032404671994       1.57300679651738       0.07894403993714
H        -1.71997807150891       2.73697042346067      -0.38275955559958
H         1.44512919224926      -1.76458933630435      -2.32660017428956
H         0.48298613060957      -0.37962186106366      -2.82716608107082
H         1.88940222555374      -0.14953649148259      -1.76586257121389
H         2.29627574623107       1.59179472386479       1.25997338289121
H         1.28954109838043       0.36347079242431       2.02711486025063
H         2.25862120478895      -0.04291356364988       0.59994596466636
N        -3.75834980486169      -1.40328521319129      -2.02819284300313
S        -2.78979425880768      -2.38080551521617      -2.80700083822530
S        -4.38749373649831      -0.16406490233701      -2.81790574306301
F        -1.54313091527181      -1.41143742778891      -3.30377012223382
F        -5.37572521810001      -0.81305972135128      -3.89909780322326
O        -2.15585377604797      -3.20413115832160      -1.81819684802796
O        -3.26472093271264      -2.97269582870012      -4.00854391193816
O        -3.45030417600705       0.60419453511727      -3.58040556635120
O        -5.22685804726514       0.52608737330357      -1.89323127615682
