71
C21H29F18N2P optimized with ADF in AMS.
N         1.34513721575907      -2.30624311756977      -2.48695344014721
N         1.00105140169343      -3.39044805553205      -0.63369982805807
C        -0.00582808934317      -0.74287555587074      -3.86656965846254
C         1.39276686313944      -1.18808652957079      -3.44262228069582
C         0.91694190309154      -2.50935756335363       1.70600278008795
C         0.75338161334024      -3.71235945045785       0.78660354983287
C        -0.87237286473067      -0.25480320402516      -2.70990827888104
C        -0.26324963211545      -1.52425191373265       1.68498636216591
C        -2.26912985984588       0.17156217680123      -3.15605698188265
C        -1.44412366519823      -1.99620409062301       2.53392098713462
C         1.16679539918896      -2.16976056136578      -1.16399975552325
C         1.28312322850805      -3.64443298782994      -2.80780686140636
C         1.07195962219052      -4.32484713181160      -1.64667269689179
C        -3.16840206533868       0.54331665235346      -1.97804797061670
C        -2.67617774249241      -1.10539102424369       2.38587140771574
C        -4.59578300717175       0.86881350586181      -2.41119607878487
C        -3.87757518190855      -1.64160890200714       3.16015651858058
H         0.12841760365741       0.06217581621569      -4.61090112492766
H        -0.50869305239232      -1.57868896007312      -4.37763849071128
H         1.87740328806709      -2.01254211451218       1.47805560021453
H         1.03001556685658      -2.90402556561882       2.73036994026550
H         1.98766859222082      -1.53218064689802      -4.30055051613179
H         1.94481644422812      -0.37009699203792      -2.95329331293751
H         1.46872222161867      -4.50700199566392       1.04673266482936
H        -0.26349240706745      -4.12918138806609       0.84183532541567
H        -0.37146372651641       0.58454573378874      -2.18625962192409
H        -0.99945919207708      -1.07430236250639      -1.98227814616259
H        -0.62442695385446      -1.36663446478304       0.65397108648743
H         0.07814295238584      -0.53908327624315       2.05018325625441
H        -2.19821128123067       1.02474643225102      -3.85689901190547
H        -2.73041333146387      -0.66129343713891      -3.71248040151363
H        -1.13599141938322      -2.03381173678278       3.59614473376724
H        -1.71779291429815      -3.02742442308422       2.25134559848189
H         1.14629205699327      -1.23086291993159      -0.63169620327111
H         1.33388887150170      -3.99811858586361      -3.82886224589583
H         0.91662959890548      -5.38070380827326      -1.46942220314352
H        -3.18635386220038      -0.30252444613310      -1.26793521308058
H        -2.73010951988867       1.40297652589192      -1.43654360663770
H        -2.93466124928636      -1.02685719455506       1.31534275902070
H        -2.43142508129861      -0.08186812855101       2.72532502058473
H        -4.61095668453353       1.71240444766876      -3.11979145540914
H        -5.05404565428928       0.00078637015527      -2.90894600327687
H        -5.22772888072966       1.13909178639612      -1.55107788769081
H        -4.75349975897390      -0.98380565332316       3.05131784474370
H        -3.65098166787028      -1.72728863508977       4.23495175245570
H        -4.16023863560904      -2.64103993434143       2.79364500108132
P        -2.53890615313221      -4.68257549568874      -3.37839093732131
F        -1.15329662997125      -5.62546153851309      -3.35308386202872
F        -1.68476644739559      -3.33049253895265      -2.84663722545628
F        -3.40885147022633      -5.98416007800446      -3.91031842329758
C        -1.94497098265873      -4.22306753747632      -5.20811733470964
C        -2.75164772585517      -5.24023501419856      -1.41825531417000
C        -4.28101994568149      -3.65322744308620      -3.30186793189344
C        -2.04978774298458      -5.28733865774600      -6.34381972302374
C        -3.19536866082333      -4.29062080234396      -0.24932395877894
C        -5.13024092227183      -3.10447369049173      -4.49704229815253
F        -0.58589106272118      -3.90370510757976      -5.17916624316962
F        -2.56064359399262      -3.08917045893689      -5.68695234766706
F        -1.48537376612469      -5.62496071849329      -0.96217762302109
F        -3.54654041390589      -6.34985201114022      -1.30779340215911
F        -4.12997654158674      -2.55351020878817      -2.47419262930806
F        -5.14992481967619      -4.52216587664622      -2.67226173779094
F        -1.48274996515723      -4.77568615809664      -7.47855765541856
F        -3.32853356773785      -5.60027311226225      -6.63467328749922
F        -1.38304887067225      -6.41991108847425      -6.02807340098622
F        -2.91728307964057      -4.90847036184362       0.94605723100734
F        -2.48141539010944      -3.13051666321848      -0.26249814297521
F        -4.50314473133684      -3.99142606734906      -0.22539872679806
F        -4.66134354676777      -1.92106478373755      -4.96363534589234
F        -6.40091250677274      -2.86657469946709      -4.06155766872845
F        -5.20179753803556      -3.99067545588443      -5.51137185691119
