22
C8H8F3NO2 optimized with ADF in AMS.
N        -0.22094149573741       0.70951256293998      -0.03643414115483
C         0.35264003223956       1.47199730128879       0.92914980069513
C         0.48058223388272      -0.26495672783264      -0.67586759856845
C        -1.55342817017628       1.06818212747332      -0.53609404923577
C         1.61988865420443       1.11388546414878       1.41222923606315
C         1.75240051242361      -0.58932858578211      -0.28209652515817
C         2.32574174151507       0.10375373242616       0.80050928588465
H        -0.28370470964911       2.19733586492669       1.42283731647587
H        -0.03712559186630      -0.76226705903273      -1.49409114589656
H        -2.13844323506948       0.15251459668549      -0.68862147487835
H        -2.04868905613735       1.70928427253620       0.19947014763519
H        -1.44686743491241       1.62551152492169      -1.47658707377638
H         2.04099431905709       1.68942192174732       2.23489853935056
H         2.29076282146000      -1.37808193216968      -0.80541346109319
H         3.32566470879943      -0.16049619994899       1.14788768185661
C         0.41261992484577       3.98358697710969      -1.06423364260955
O         0.71505925284670       4.42042359631971      -2.17821812899097
O         1.04891613161186       3.16514451900704      -0.31932311066037
C        -0.95604979855941       4.53842941609708      -0.52921796020829
F        -1.99607184024152       4.11642160653035      -1.32654644617059
F        -0.98371261508862       5.89323018230071      -0.51758437626653
F        -1.28681193614836       4.13002987590715       0.75541333680682
