23
C7H12N2O2 optimized with DFTB in AMS.
N         1.33667502308347       0.62720238042459      -0.73204078910984
N        -0.24379492828266      -0.31209618969467       0.34034587535328
C         0.94697368781157      -0.54876741979418      -0.22648945013136
C         0.40275722912926       1.59995863492334      -0.48754602078188
C        -0.60749610212193       1.00378998110262       0.19520269077467
C         2.59590321666024       0.83056398041369      -1.42946983759062
C        -1.03401058250971      -1.32467827823973       1.01585977029440
H         1.53059943201782      -1.69626754962475      -0.21219791094390
H         0.52617371615985       2.61853803557446      -0.81284974375675
H        -1.53213829194604       1.39719277304994       0.58041563077386
H         2.67636620877729       0.10411017482215      -2.23709381134690
H         2.62966121358725       1.84455504016662      -1.82494381713310
H         3.41912612924663       0.66522184636188      -0.73484422288622
H        -1.21040502058222      -1.02435409090421       2.04981382810172
H        -1.99051959648089      -1.44703090940727       0.50515104179352
H        -0.48132696188132      -2.26287600994217       0.99337016674816
C         4.03180363408162      -4.07826088567428      -0.62253304413605
C         3.23086963828433      -2.77428747299630      -0.63310167683400
O         2.05148317791620      -2.87067904520322      -0.14007093822544
O         3.72775747814805      -1.74962517811547      -1.08684372776035
H         4.15038742149144      -4.41467195084537       0.40647600773399
H         3.48199593119728      -4.83985571919565      -1.17347743963909
H         5.00818487651247      -3.92351357460197      -1.07584243369810
