26
C8H10F3NO3S optimized with DFTB in AMS.
N         0.40458419512354       0.30937755753338       0.10782168398214
C         1.84523190439004       0.34253279228116      -0.19591280433670
C        -0.19262487137460       1.39939271687137       0.60647388607249
C        -0.26601012951946      -0.85123241793985      -0.02442495184984
C         2.61810129225356      -0.49442459248862       0.81714519872037
C        -1.53597897907116       1.36799858995675       0.95337905391718
C        -1.59190762573652      -0.93626839787905       0.32479082705656
C        -2.24446817543903       0.18989572825562       0.82865266888034
H         1.98351052255297      -0.03738226262490      -1.21246635811969
H         2.17152488147324       1.38329920560363      -0.14423601279376
H         0.39515559735209       2.30697843651679       0.66089678950792
H         0.28616572102394      -1.69430225157060      -0.42152335752548
H         2.43778352375662      -0.11730466674808       1.82207080913811
H         3.68086993427432      -0.41488912649350       0.59373750133772
H         2.32209425723001      -1.54200111002072       0.76912172998436
H        -1.98782185817724       2.26476302467913       1.35692713034941
H        -2.11405186700670      -1.87768877913826       0.21182673580692
H        -3.28791591775191       0.13322922815699       1.11307045857450
S         1.70610140940069       2.22670690445537       2.98440856732322
O         2.66263181614605       2.00489659600458       4.03235860895259
O         0.72422926607742       1.15226173698858       2.79808746254039
O         2.24744591859730       2.70854690513566       1.71915516812018
C         0.62777934046916       3.62990387471704       3.53833385445223
F         1.26816491205169       4.78881429330476       3.54090813868895
F         0.11936405832513       3.42186318706171       4.74370723388335
F        -0.39817318122116       3.72963859638105       2.67291233253656
