49
C13H25F2N3O4S2 optimized with ADF in AMS.
N         2.19400468284629       2.04897755836001       1.04885555286544
N         0.58166300274924       2.35420188042430      -0.36914731523682
C         3.45664195289166       1.54129508827937       1.60589370154714
C        -0.18722472666157       2.25348682893942      -1.62418043145374
C         3.34146801008666       0.07382075675258       2.02058714319647
C        -0.59678596680603       0.80996863148638      -1.89611575572931
C         2.96870602007739      -0.85369193916590       0.86658426459329
C        -1.45924335316924       0.19418629220454      -0.80039749296977
C         1.81652847335499       1.86147085400066      -0.22199707412156
C         1.16898119281561       2.67065773428519       1.73562397171860
C         0.15512915974864       2.86477505472662       0.83978783640348
C         2.93455540000464      -2.33058097964895       1.25290641894331
C        -1.75580792823827      -1.28349984512856      -1.05294671972339
C         2.49724774085684      -3.20530804203231       0.07933479353787
C        -2.61732857265079      -1.90272579312730       0.04359583511119
H         3.72005716471696       2.19117030163017       2.45346990149758
H         4.21600287856668       1.67427102761896       0.82122762975465
H         0.45921496899905       2.64488898858647      -2.42392282195474
H        -1.05879865554523       2.91441503373509      -1.50981066637485
H         2.60772543611226      -0.02372944494542       2.84171189095030
H         4.32321808222372      -0.21775747796270       2.43489490706746
H        -1.12866390285737       0.79717193545613      -2.86332233834383
H         0.31580990448070       0.21032570487293      -2.04574506592179
H         3.67210294534253      -0.70907315702897       0.02633524035724
H         1.97084969100179      -0.58412188775056       0.47684603173099
H        -2.41181882043580       0.75186094177841      -0.71010823742570
H        -0.94832498903209       0.28773117964541       0.17714795670045
H         2.38739456325416       1.36215627362815      -0.99900479401749
H         1.25568474670725       2.93278573413298       2.78263490126563
H        -0.81654145819797       3.32873724062295       0.95458197421065
H         2.24478461596560      -2.46975790262144       2.10607460060579
H         3.93478030694516      -2.64278249453591       1.60463716701632
H        -2.25568341062763      -1.39227080345904      -2.03235880887625
H        -0.79874222930544      -1.82943066312782      -1.13459973518696
H         3.17793832174437      -3.08091723012541      -0.77737913258355
H         1.48873319297935      -2.92227228294654      -0.26227785226344
H         2.47709813972191      -4.27183405799746       0.35033881271176
H        -3.58478475605744      -1.38139011234003       0.12552042971088
H        -2.11597747175166      -1.83338903065288       1.02277956207702
H        -2.82409599147188      -2.96568511760338      -0.15371841754235
N         4.07711032642904       1.38739102677712      -3.97508660661976
S         4.12793033398519       2.64405391966452      -2.98700395331757
S         2.94202132124518       0.27496672546032      -3.79780814169317
F         4.70571645403063       1.95800772803218      -1.55025947403030
F         1.56910724199729       1.03818573108863      -4.35154455026098
O         5.18990627295198       3.52995595857369      -3.39716235328424
O         2.83669374841187       3.17826403774924      -2.56301676827378
O         2.58833887554542      -0.04159055656248      -2.41010457066681
O         3.16741448231837      -0.79736202494932      -4.73517674600137
