34
C8H18F6NP optimized with DFTB in AMS.
N         0.65276921399077      -0.15150260450880       0.04816215087082
C        -0.18465238127189       0.30170374075169      -1.11583444059543
C         0.20677966256849      -1.51648850930657       0.48644550869025
C        -1.67663118221132       0.28831339014016      -0.81291879381869
C        -1.28336488390604      -1.57930279232014       0.79987178079597
C         2.08273418616619      -0.18818093877119      -0.43943150658828
C        -2.12263054397281      -1.10858761045666      -0.38576075494368
C         0.55540128501643       0.81827187967337       1.16984819175089
C         3.05282853638231      -0.91519877310208       0.47668038799998
H         0.02849937557810      -0.38266771602478      -1.93978223779148
H         0.15332779097568       1.30487331909619      -1.38601880292837
H         0.78749541679304      -1.78427041424245       1.37083615895039
H         0.44817574341998      -2.20184789999677      -0.32591726548012
H        -2.19430251488905       0.57692057970803      -1.73116440681410
H        -1.92889349266884       1.02453581063025      -0.04324461195002
H        -1.51825544276467      -0.98779180100190       1.69063562541292
H        -1.51740362417052      -2.62301473748626       1.02495700020336
H         2.07725177876267      -0.67840516784907      -1.41343941112664
H         2.38684859529038       0.85335772364227      -0.57399877269509
H        -3.17893978647265      -1.09261340406548      -0.10769035738859
H        -1.99484625123105      -1.80193116164035      -1.22070172447814
H        -0.46797142399717       0.86788330622568       1.53130722711010
H         1.20785488324615       0.49442450873552       1.97780263872981
H         0.86489747178516       1.79977431860318       0.81495786817594
H         4.05657723437737      -0.73424571768915       0.09273352293686
H         3.00856005477379      -0.55740499719790       1.50469497058703
H         2.87496722701748      -1.98872886594965       0.45534111025089
P         1.17383042631207      -2.95643105526170      -3.11713442053306
F        -0.26080511148928      -2.57999844058601      -2.31445183534434
F         0.88650886292285      -4.53827234479392      -2.88292329318717
F         0.37953071388166      -2.95668914469809      -4.53264780119759
F         2.59755894184138      -3.25252111272876      -3.83870467788659
F         1.43842842299070      -1.30221479866113      -3.26363649022441
F         1.95044624415264      -2.88412806616752      -1.62065278379344
