29
C9H17ClN2 optimized with DFTB in AMS.
N         1.10756854594937       0.14222457896898       0.46165030730639
N        -0.82194134535041       0.39986700453103      -0.45704404586237
C         2.32847886693359      -0.46792952506212       0.98241877771281
C        -2.13893349359984       0.11202940785140      -1.00781430100766
C         0.06968834937957      -0.51085527072427      -0.05011160915838
C         3.46130011126100      -0.35004165260437      -0.03882347833679
C        -3.21670345012425       0.27343041668248       0.06944353383611
C         0.88765693368056       1.48774296493121       0.38516400074634
C        -0.33290148538386       1.65381443999692      -0.18675061203804
C         3.13160311867666      -1.02841385459553      -1.36470773313729
C        -3.05045814949722      -0.72954532744736       1.20819312628703
H         2.10886718779723      -1.51130646572577       1.22286149238744
H         2.60735782081902       0.08800173286946       1.88360355824136
H        -2.12809469331219      -0.90919966260025      -1.39821909133184
H        -2.31955265910634       0.80786656568724      -1.83146776151121
H        -0.03824167103650      -1.57860748308768      -0.12915001271740
H         3.68261271812497       0.70892186950545      -0.19323463157375
H         4.34665263406861      -0.81174874552638       0.40610653998751
H        -3.17759224265911       1.29240036497836       0.46449984898360
H        -4.18949785562081       0.13155138603513      -0.40919757789595
H         1.62888302026096       2.18016973991671       0.78202366264523
H        -0.88670844730606       2.54300047127238      -0.43008784553458
H         2.26930812580384      -0.55538170286892      -1.83771634596425
H         2.90810146231175      -2.08626695015234      -1.21387577184627
H         3.98206198709157      -0.94663738469954      -2.04059802836224
H        -2.09306177240332      -0.58616217929706       1.70962205781590
H        -3.09745694799354      -1.75126450259749       0.82960398839504
H        -3.84697442101079      -0.59153051713725       1.93806091141736
Cl        3.40110402074556       2.34404328929958       1.93078738061592
