61
C17H24F18NP optimized with ForceField in AMS.
N         2.00136140921811       0.44484463786895       0.09166499183050
C         2.24034619547635      -0.86315491929424       0.76008072492426
C         3.11707888639115       0.60406306142964      -0.89015479035086
C         0.69498397895564       0.45851287736838      -0.63601315972248
C         3.67715526359906      -1.26138252148383       0.49336983881715
C         3.96885058715560      -0.65500292504992      -0.85230531579792
C         2.05991254527295       1.54797660503396       1.08534055869861
C        -0.55015178225482       0.27067010268870       0.26281654900909
C        -1.81292474107010       0.10715256762645      -0.59352969405008
C        -3.05841885104611      -0.08656273898522       0.27967367512406
C        -4.31815812357404      -0.20989028668382      -0.58546522066159
C        -5.56416143053917      -0.39853641531385       0.27479769090692
H         1.59380372047030      -1.66548159246005       0.33484643696495
H         2.04597223619475      -0.83488440186496       1.85702568508632
H         3.77507941558069       1.47257999034736      -0.65180998560235
H         2.76376261425830       0.77465845699555      -1.93379503728592
H         0.69428562207460      -0.34575566023241      -1.40873833515432
H         0.57896337830836       1.42241531490126      -1.18396386093146
H         3.80492316435751      -2.36586755938720       0.48145339499619
H         4.34398396607997      -0.81296499592163       1.26287735272684
H         5.05096594607507      -0.43001836028180      -0.97336415436656
H         3.64225206869599      -1.35327918797987      -1.65530385114418
H         1.32479294021450       1.40234177933196       1.90522323786649
H         3.06315403338638       1.59783046737440       1.56582985994907
H         1.85770319390904       2.52904465419820       0.60027567710782
H        -0.43560917998956      -0.62455141570844       0.90940455486996
H        -0.68405248040921       1.16148940882928       0.91179480678277
H        -1.69573575097455      -0.77530053991662      -1.26051801684224
H        -1.94407317435964       1.01252854112328      -1.22632413202322
H        -3.16712856543209       0.78196851064378       0.96616781277822
H        -2.93905804357075      -1.00839019376685       0.89080246850814
H        -4.44259701317778       0.70880336052703      -1.19954017588355
H        -4.21940239836886      -1.08007124971437      -1.27074158831742
H        -5.69861789780939       0.46951965629100       0.95481178755061
H        -6.45782430615935      -0.47880848025383      -0.37898956270035
H        -5.47989879868027      -1.32797207676113       0.87740513141003
P         9.02746682499687      -3.12773491901752       1.96619074057776
F         8.39046384140427      -2.58419837767406       0.46209774623096
F         8.31333376028259      -4.61217944200162       2.47366473722392
F        10.09180839221209      -1.84213887962945       1.54709146108324
C         9.81320478999944      -4.41158703478151       0.74309829575307
C         7.33009772332056      -2.28642780603159       2.36368213797169
C        10.03363008691396      -2.89035973908134       3.60042299559589
C        10.70563280073353      -3.86243553170817      -0.40304827658630
C         6.82907855724924      -2.36329513782421       3.82035799749672
C        11.48619789986721      -3.40918019814097       3.61144257297686
F         8.79517036396008      -5.13159580215781       0.12955378148582
F        10.57045296968567      -5.32134963072771       1.45384020662751
F         6.33163226003191      -2.87256293091522       1.59180847104580
F         7.40406660973281      -0.94078208793211       2.03096462980642
F         9.38604638500328      -3.56367182470205       4.62082768886045
F        10.05915680346872      -1.54639215649678       3.94808155484684
F        11.29807040971121      -4.93150207471721      -1.05217151295766
F        11.71388197931069      -3.04394600657416       0.05891063373522
F         9.95929155535527      -3.16965978482633      -1.33942841576316
F         5.54332664061030      -1.85269671393013       3.87284184709505
F         6.78213438494506      -3.66868401038263       4.27274006604729
F         7.60982293964465      -1.60082754195126       4.66590241667107
F        11.51301385808336      -4.78966430306854       3.67592255886993
F        12.12464622044004      -2.93015258781615       4.74202918576842
F        12.19973704717860      -2.98095331413059       2.51422010536371
