29
C7H13F6N2P optimized with ADF in AMS.
N         1.84698432607963       1.12765785450492       0.12575394998540
N        -0.01995820822347       0.40797185703821      -0.70797400573595
C         1.25578282921858       0.69300014453488      -0.99294318557943
C         3.28286767279752       1.42572527103378       0.25948673984135
C        -0.97130816729746      -0.21869044320440      -1.64080858136628
C         0.93057925184600       1.09709667373307       1.15915898694142
C        -0.24433931412513       0.64447059318148       0.63383383915396
C         4.00145784032632       0.32621993202638       1.02465614686757
C        -1.19600034736915      -1.68174779318546      -1.29334138441081
H         1.74956445351578       0.51345214556909      -1.94315939397850
H         3.67766778837466       1.50763198774858      -0.76236359995392
H         3.36426359984129       2.40876872751637       0.75078293250144
H        -1.89869565129792       0.37484717068526      -1.60429017758124
H        -0.52880628078100      -0.12257858792422      -2.64167117820330
H         1.18894341731943       1.40011019043896       2.16635211335026
H        -1.20996034029257       0.47493089394333       1.09382879383528
H         3.61886247922189       0.23221009235541       2.05272249749807
H         5.07215470840623       0.57143297312775       1.07534147016989
H         3.88178627663895      -0.63379737237451       0.50298411380324
H        -0.24114184216197      -2.22483186976348      -1.32132416757939
H        -1.87572501424071      -2.12227972348749      -2.03658679075538
H        -1.65099242234490      -1.79604934210026      -0.29729223443859
P         2.90739434316719      -2.15273601332274      -2.25395279334506
F         1.61528703414826      -1.41411899100184      -3.04635119310187
F         3.62570703982396      -0.63002370021727      -2.14830539505818
F         2.13088132330846      -1.83101187702581      -0.79320542251321
F         4.16244199002697      -2.79861809583306      -1.42278270757562
F         2.13105193819084      -3.59220469203814      -2.33112888043495
F         3.64700863258233      -2.40802190675882      -3.68461424253619
