51
C15H29BF4N2 optimized with DFTB in AMS.
N         2.12953382480869       0.63802854157657       0.96369153267797
N         1.87797198377500      -1.49391935249331       0.84987627291105
C         1.01497697722615       2.75930869526804       0.44346227176305
C         1.96725609357451       2.02459337359804       1.39247759969051
C        -0.13734175436631      -2.88432175093241       1.05091131359248
C         1.39042884300269      -2.83941552361827       1.14643302510023
C        -0.39145780170958       2.15749167466118       0.48526227716600
C        -0.65424397886637      -2.44091573366609      -0.32027224409075
C        -1.33682532853719       2.85222336411968      -0.49680964172459
C        -2.17192234495616      -2.23792939458093      -0.28406204269041
C         1.61240041306993      -0.41642788924013       1.58608684367784
C         2.72943494167612       0.23037374688873      -0.19822097676412
C         2.56719134132625      -1.11725037804983      -0.27090181124950
C        -2.74233714194916       2.25037011952581      -0.39838071996879
C        -2.70874290327493      -1.82619215557570      -1.65744884126282
C        -3.69414590724088       2.87248726841790      -1.41792379876446
C        -4.21425907696948      -1.57022380399060      -1.60987984808252
H         0.98359483916379       3.80720072860645       0.75558902590876
H         1.41548632957365       2.72191330040054      -0.57520484929212
H        -0.55354899223638      -2.23700351985662       1.82560076173337
H        -0.45310299087367      -3.91018227582227       1.25847250814540
H         2.95282090053305       2.49811240223006       1.39737778353412
H         1.55881274162180       2.00460079403452       2.40583994557685
H         1.70942874728982      -3.09919114103992       2.15947148972541
H         1.85926184738649      -3.52366992600026       0.43437437701188
H        -0.78765151413550       2.24074854427381       1.50040699192976
H        -0.33903855071034       1.09211817009490       0.24198609210308
H        -0.38844887538201      -3.18640973845416      -1.07880310867805
H        -0.17847642836768      -1.49513452052962      -0.60140358839703
H        -1.37915792517687       3.92419235197809      -0.27457241634098
H        -0.95613947222196       2.73757452330969      -1.51863595238675
H        -2.40548834095808      -1.45937487580002       0.44847770027971
H        -2.65972537811768      -3.16340804208421       0.03949272445993
H         1.07352075938992      -0.40946787684629       2.52197159615255
H         3.21709189591063       0.91767478324479      -0.86682789476349
H         2.88484376996046      -1.82646100485746      -1.01492018681409
H        -2.68407960344682       1.17031568512655      -0.56681492930595
H        -3.13272871293826       2.40803047091768       0.61146886730270
H        -2.49501639039977      -2.61396181128216      -2.38875279699792
H        -2.19683263848929      -0.91586084968311      -1.98921736749759
H        -3.76646152540335       3.95068267324205      -1.26710315207926
H        -3.34150021905200       2.68753911432721      -2.43385906824550
H        -4.68936477590410       2.44075800109466      -1.31170995888696
H        -4.57637535849766      -1.26156878076505      -2.59078562049408
H        -4.44303020512927      -0.78294989122761      -0.89067932908152
H        -4.74522076796010      -2.47514448857666      -1.31119992268495
B        -0.92151719364212      -0.00558403824198       3.38725051810481
F        -1.27688790738592      -0.17446532571882       2.02392891100943
F        -0.18074859686131      -1.15865909049855       3.75473095702592
F        -2.01208985995847       0.18119440828002       4.17810262797403
F        -0.02832263327032       1.09841636161496       3.44618883948736
