25
C9H13NO2 optimized with ForceField in AMS.
N         0.15481411217617      -0.01034060828567      -0.34662273471698
C         1.60313789125531      -0.03987207064800      -0.58593080087829
C        -0.49823695560986       1.18936476002066      -0.26412035722144
C        -0.53065041185825      -1.18477936554841      -0.19335220672344
C         2.35815429815232      -0.09409874465529       0.73754591309699
C        -1.87491257291984       1.23250341040305      -0.02821147127958
C        -1.90779114531121      -1.17693210388718       0.04215133743969
C        -2.58149857291918       0.04054824694869       0.12399296115002
H         1.87477793282450      -0.92414242821539      -1.20399441544365
H         1.92521074264609       0.86074627719951      -1.15445363543721
H         0.04399897323778       2.12106763955826      -0.37524557806397
H        -0.01365574594679      -2.13553820047229      -0.25135894352321
H         2.14774402789959       0.82041596492661       1.33180696292512
H         3.44983761462317      -0.15403595838996       0.54414311590593
H         2.04902600666696      -0.98789732280069       1.31941091463111
H        -2.38861322795277       2.18287667509119       0.03665568848934
H        -2.44699132723230      -2.10784875667497       0.16041076880625
H        -3.64845465911595       0.06022324001348       0.30601934458728
C         6.51671600741632       3.25055087606698       0.10835055946105
C         5.08333013779188       3.38124617380531      -0.29954862473260
O         4.69827408334459       4.39668093577737      -0.85614372353719
O         4.29544887276094       2.47635466389792      -0.07857732403143
H         7.16721810185186       3.32339917428318      -0.78844184146664
H         6.77855427973597       4.06465761531992       0.81649761106921
H         6.69652984768268       2.27221421176569       0.60373961979363
