37
C11H24ClN optimized with ADF in AMS.
N        -0.91216239609902      -0.06032508721307      -0.08238961620484
C        -1.38514052805104      -1.02302512799414      -1.14629039170475
C        -2.06004012429494      -0.05781891543858       0.91823960022829
C         0.33791870706866      -0.59227354577307       0.60609042672246
C        -2.11401873372970      -2.13713889465883      -0.39174920335025
C        -2.52386375157248      -1.50985794390626       0.96742726157683
C        -0.69660001403905       1.31180497130455      -0.67302616832645
C         1.59994132866779      -0.53373891500345      -0.23082376581302
C        -0.26212643168794       2.36974492097441       0.32143015670874
C         2.74822973148203      -1.20279894608151       0.53094111816282
C        -0.14978447828205       3.72302334015607      -0.37445227965426
C         4.06604548108115      -1.13244689785689      -0.23362775093927
H        -2.07258501968018      -0.45917104253574      -1.79464229692896
H        -0.52632938915654      -1.35699419970938      -1.74246297824320
H        -1.67130424116208       0.34466530201954       1.88772036037548
H        -2.82925447562938       0.60257348604732       0.48837641510824
H         0.10526369471475      -1.63367511495683       0.87566851977118
H         0.42143822757616      -0.01822535812919       1.56267710433744
H        -2.98249722821230      -2.47541424638269      -0.97511242830094
H        -1.46159538672880      -3.01047740528576      -0.24566871958082
H        -2.04322572808188      -2.03338761396754       1.80739661046019
H        -3.60940764516458      -1.55500938214983       1.13356445484572
H         0.03828732433862       1.19360338532796      -1.48590214497050
H        -1.66221458671712       1.58562436510071      -1.13138119704438
H         1.47968750423254      -1.03615474543636      -1.20997649266935
H         1.88181677934540       0.51363906945798      -0.43458246057993
H        -0.96470677277263       2.41882055441351       1.16933737050096
H         0.69644993179791       2.09798346621119       0.78932853775841
H         2.85065387302151      -0.71475468381779       1.51587528039657
H         2.48637856816116      -2.25789856426169       0.72984495875669
H         0.59177089578026       3.70022947368439      -1.19014930225414
H        -1.11573741909472       4.03885829435679      -0.80124223802906
H         0.16505263190294       4.49074930750226       0.34700472252939
H         4.87764802774704      -1.61784087237732       0.32843742674001
H         3.98509977278595      -1.63374348620986      -1.21209288228543
H         4.36018105624713      -0.08603827173996      -0.41377479149555
Cl       -0.20993535929458       1.00526856042906       3.41694140599573
