39
C11H19F3N2O3S optimized with DFTB in AMS.
N         2.02230449052216      -0.90240175915748       0.17276315484000
N         3.19130134721257       0.90561361049933       0.19683667069245
C        -0.32689463595376      -1.60557626708319       0.40646361050736
C        -0.90312277924166      -0.26846677845279      -0.06323007439957
C         1.03679295364314      -1.90357625294799      -0.22667757512233
C        -2.19915228098861       0.05966902667558       0.68383400160794
C        -2.68234496823619       1.47387404460903       0.35105022048103
C         2.32153457419947       0.19559538765747      -0.52106266862178
C         2.67724146004588      -0.86779247310522       1.37083901207278
C        -3.86151111128150       1.87150911489253       1.23656094183038
C         3.42375585755421       0.26809334584185       1.38383795909094
C         3.72648654062583       2.20468480383276      -0.17284674962847
H        -0.21604981486512      -1.59142343298170       1.49350374105037
H        -0.99898544023232      -2.42570114101673       0.13766633256396
H        -1.08008934201132      -0.29803412639333      -1.14509822299235
H        -0.17256258087946       0.52053325097062       0.13877890287773
H         0.97447909101362      -1.89101498263305      -1.31889766154577
H         1.40640895728126      -2.87934367080392       0.09917056662218
H        -2.97164533647406      -0.67371730791895       0.42729059625460
H        -2.01176475867002      -0.00708725242511       1.75896199080271
H        -1.86178616095686       2.17970059682266       0.51536433557840
H        -2.97022542925982       1.53006194122952      -0.70537876599099
H         1.94953724417285       0.44914242636586      -1.49833700105260
H         2.53965925969793      -1.62531940043863       2.12085535418391
H         4.05881063675475       0.68967717693997       2.14256719828415
H        -3.55406207475548       1.87346668110915       2.28256048112712
H        -4.20784137295040       2.87134873509068       0.97280752163760
H        -4.69009715126244       1.17157082492891       1.11499420598457
H         4.76561871615202       2.26507570654067       0.14692848754298
H         3.65819044138730       2.32599052387808      -1.25252527117248
H         3.14359819822838       2.97974142930428       0.32578019278731
S         0.28094260146804       1.39374351915241       3.32345785415106
O        -1.12603875800189       1.69749641618411       3.23675747763979
O         0.69139224468341       0.20056248749689       2.58765020821160
O         0.89874192552803       1.54561289676639       4.61398687961278
C         1.07744832502308       2.74462349974932       2.30388149737491
F         0.61476319066861       3.95626742823544       2.56098437831742
F         0.90724109319918       2.51906016440646       0.98292996597414
F         2.40958599745921       2.76552455737807       2.49900443432415
