31
C7H13F2N3O4S2 optimized with ADF in AMS.
N         1.84242807525367      -0.13038720891222      -1.99480308418854
N         0.47298501831880       0.41811406817611      -0.40176088530926
C         1.15459451521158      -0.59707091234446      -0.94863999223608
C         2.77781422244366      -0.89379847299345      -2.84261362905510
C        -0.36085488520076       0.32177704305158       0.80836704665242
C         1.60798296348046       1.22435619601572      -2.10999591264294
C         0.74934568657095       1.56933449818859      -1.11052476324013
C         3.04974855819620      -2.28186851601005      -2.30156532902929
C         0.27357234214385       1.01848114521264       1.99843338803501
H         1.18800074311682      -1.60431793950955      -0.56133636525881
H         2.34118515034508      -0.92685206042353      -3.85389394092328
H         3.70511414982933      -0.30459992078263      -2.86278397904765
H        -1.34675856727691       0.74248832455683       0.55460014368980
H        -0.49141455703182      -0.75147068144996       1.00738561399015
H         2.10254825128896       1.82373776317103      -2.86321404579088
H         0.34879105737152       2.53272854664511      -0.82457074253590
H         3.47001968996802      -2.22763644439776      -1.28715463588754
H         3.79376768263483      -2.76991201826843      -2.94763672078774
H         2.14706474543906      -2.91166302672089      -2.30400455570999
H         1.24249757963163       0.55851655203500       2.22838770875222
H        -0.39283852748262       0.91984742530758       2.86854291531806
H         0.43286364189568       2.08837661436565       1.80451636992750
N         4.69639452670538       0.22140549703752       1.79425488189080
S         3.99847285588885      -1.21650757262402       1.78471045659004
S         4.51973364665994       1.23674060022839       0.57009876796595
F         4.85328276310005      -2.05444121934949       0.62828629812303
F         3.00722525653157       1.90237215897416       0.85700665429047
O         4.30329669965360      -1.89125843386887       3.02415584234407
O         2.63174107405754      -1.25980128806574       1.25883425145333
O         4.35221569931379       0.62751853928683      -0.74483594285981
O         5.41971548114131       2.35138127596831       0.75255011268010
