38
C12H19F3N2O2 optimized with ForceField in AMS.
N         1.91440456456764      -0.91495285961383      -0.21342286594248
N         3.15123337942963       0.92899941625256      -0.10996600343645
C        -0.36742161844069      -1.85090638691299      -0.04764896097690
C        -1.04544243483076      -0.50225492007994      -0.32877061347873
C         1.00986398505640      -1.94699488997658      -0.71754751117909
C        -2.45951515473996      -0.45686981447605       0.26133733296804
C        -3.10342319615966       0.91541915392372       0.02940778157957
C         2.37878281830108       0.15182653361238      -0.89315257473318
C         2.41517766552234      -0.81222343679807       1.03477429381266
C        -4.51540746974303       0.97027216273412       0.60499345625234
C         3.18135794313168       0.33469108596599       1.09905250772071
C         3.79724911695128       2.18181908210098      -0.47925061645367
H        -0.25678310424542      -1.99545288290689       1.04923007481736
H        -1.00694406437369      -2.67191030124125      -0.43811487232343
H        -1.10093801030377      -0.33822599170127      -1.42764742336123
H        -0.43897942231255       0.31484253978399       0.11989444317432
H         0.89144243442328      -1.84528805160512      -1.81847448274159
H         1.45029021124460      -2.94770853671494      -0.51922399861886
H        -3.08319841124190      -1.24391984372296      -0.21778185501491
H        -2.41018475559755      -0.65979370331191       1.35414353341163
H        -2.48793096619775       1.70413019866100       0.51506611919429
H        -3.15114695533719       1.12815607123447      -1.06103872635611
H         2.14028811927082       0.36940976770117      -1.92739071914893
H         2.22676497591344      -1.51094916317004       1.84003719318043
H         3.70944711657957       0.71296457303646       1.96517342878789
H        -4.49404798257079       0.78274867221166       1.69978164988402
H        -4.94957686064103       1.97667048655212       0.42610643737014
H        -5.16217772379536       0.21209700691045       0.11415795648241
H         4.89544735565549       2.08977474730114      -0.34566009327008
H         3.58388428065883       2.43147928684117      -1.54066062869969
H         3.41628166860960       3.00211901170470       0.16490070128330
C         0.05795640682597      -5.49542206522775      -2.83925872874144
O        -0.20214787859417      -4.96577610687498      -1.77106798503080
O         0.30955289640037      -6.68937134440261      -2.87396818045688
C         0.06452309815885      -4.69280313573980      -4.10697363185801
F         1.29718951503649      -4.80918477457194      -4.72235245462039
F        -0.18130962257491      -3.35689362726758      -3.84132490633368
F        -0.91467577303716      -5.16902465271156      -4.95865862644257
