34
C10H22ClN optimized with DFTB in AMS.
N        -1.22640368005847       0.35742641501019       0.06812569611240
C        -0.93281748599271      -1.09169292179465      -0.16384733964741
C        -2.30657137307899       0.31830091352579       1.10921616276853
C        -0.04684037818948       1.12405978256631       0.59865025967933
C        -2.28828397386231      -1.79094588262959      -0.10410772407821
C        -3.19307575953385      -0.85986291433049       0.71973343934999
C        -1.74672047642219       0.99463123111541      -1.16846651647425
C         1.20767705762770       1.08087029990372      -0.27851553394698
C         2.19994874618489      -0.01093960281123       0.14214452285855
C         3.53989424213912       0.16354997104395      -0.57945706876399
C         4.53236916752682      -0.92284910659464      -0.16950487479892
H        -0.30322905880281      -1.41635507381646       0.67085773373556
H        -0.41679698233874      -1.21645004623569      -1.11534374617036
H        -2.82399350088163       1.27744108615963       1.13526575340255
H        -1.81386431252041       0.11768304487611       2.06594344840176
H         0.17349182775401       0.69916795573301       1.58456184142873
H        -0.39235779843473       2.15388747419920       0.72177953646621
H        -2.17720277511890      -2.76386031519603       0.37663178455799
H        -2.70077257848789      -1.94822184965165      -1.10358086612690
H        -4.05552447284599      -0.53401089099797       0.13309185015929
H        -3.56042819636240      -1.35572395439582       1.61926251737997
H        -0.98933794226629       0.94994695944731      -1.94765826504904
H        -2.63709321414450       0.46527216991512      -1.49911414318216
H        -1.99392098550883       2.03280590537096      -0.95315569504983
H         0.95499257703448       0.96535086078722      -1.33652823689553
H         1.69893570808782       2.05359804163254      -0.17110040885573
H         1.79443607713476      -0.99976594959989      -0.08723741227455
H         2.35647319376853       0.03897089194950       1.22353332150889
H         3.95775367818891       1.14730164013512      -0.33946676573410
H         3.37963184626670       0.12413155822527      -1.66291434626224
H         4.71024866753683      -0.88899029815656       0.90563891267193
H         5.48171099479104      -0.77572770911443      -0.68488940535693
H         4.14550682274196      -1.90919147804264      -0.42692675525119
Cl       -0.07002874133246      -1.11524661692864       2.91706755473669
