42
C10H22F2N2O4S2 optimized with ForceField in AMS.
N        -0.56278496074467       0.31039041074611       0.15385648065703
C        -1.56734567178157       1.23722273228249      -0.45986850753045
C        -0.89025613777175      -1.10832591958799      -0.18654678800050
C         0.76958878112395       0.67957295289273      -0.43073208414382
C        -3.03431526824107       0.87802586996753      -0.15518330425729
C        -2.33774059059879      -1.50358486490005       0.15398516525855
C        -3.32857150773315      -0.56959469306023      -0.52964916151905
C        -0.52762888387680       0.50738728462626       1.62915843980111
C         1.98161645251819      -0.13432177730983       0.08676242569703
C         3.27929336426593       0.35624804953064      -0.56913946539300
C         4.48601172888039      -0.43194921451157      -0.06840801261451
H        -1.46152423324399       1.24054745151725      -1.56996727944803
H        -1.38884346264887       2.28411095955219      -0.12308459206523
H        -0.22549468648578      -1.81172262667761       0.35986239277894
H        -0.73276414417933      -1.28942475038471      -1.27482449803483
H         0.97909697001703       1.75764256722959      -0.23689642578887
H         0.74213401908528       0.56446678724264      -1.53937732901430
H        -3.69825962432276       1.54267730415599      -0.74915987604644
H        -3.27891380251730       1.05617412290224       0.91216649848666
H        -2.49790690115145      -1.49204709755856       1.25306607177191
H        -2.52251717809605      -2.54249592493862      -0.19473382582540
H        -4.36259037121548      -0.83134397417813      -0.21782965751260
H        -3.25842550720478      -0.69252815761398      -1.63311303586960
H        -1.53078782463922       0.42910657151005       2.09023109246369
H         0.09358006606482      -0.26510194739565       2.12994918111437
H        -0.12249005504533       1.51043124312238       1.89013736508833
H         1.85700428020944      -1.21019718747565      -0.15433826022762
H         2.08842808171777      -0.01767371342552       1.18460726507404
H         3.43391128153117       1.43233107123991      -0.33599254979282
H         3.20995339799094       0.24178309408396      -1.67296446706575
H         4.38034112139480      -1.50397577009928      -0.33507698947273
H         4.58244487478879      -0.33398201345679       1.03393876021960
H         5.40961067880422      -0.03824864831130      -0.54225672633171
N         6.52427906678519      -5.92023415999387       0.42115397315868
S         5.71154927807994      -5.06294708391429      -0.71091818320949
S         5.78359516856602      -7.09362641714100       1.28881937727062
F         4.55254045198934      -4.11657542907955       0.03929573111257
F         5.57592052673758      -8.44595037953053       0.32378741596116
O         6.66992769855953      -4.18407215518808      -1.46247367639928
O         5.02852319116078      -6.00012997008442      -1.66644714392638
O         4.43708366212481      -6.61662124084828       1.75560756002243
O         6.63219400300224      -7.45384248353644       2.47438016885302
