46
C14H30ClN optimized with ForceField in AMS.
N        -0.05963260082555       1.47346697813616       0.02482455280896
C         0.51230785981789       2.38785930934590       1.06143558393948
C        -0.69528031570681       2.38237068899637      -0.97796312969774
C         1.03479943549028       0.69499728860599      -0.64216441236744
C        -1.09282035539520       0.59141229056763       0.66062564587686
C        -0.00939978136183       3.78679754733104       0.79612589708023
C        -0.23366657460672       3.79656663795099      -0.68863589065408
C         1.77203978320309      -0.30530189908471       0.27910451389632
C        -1.78085091677488      -0.40141417906003      -0.30602550347240
C         2.99215523505371      -0.90038002459633      -0.43678254325448
C        -2.89737511790417      -1.17430119546758       0.41034281925601
C         3.70724654492115      -1.93010572581724       0.44540476595002
C        -3.60246845626728      -2.14057090757213      -0.54944432890925
C         4.92197799504749      -2.51675543481033      -0.26793502976184
C        -4.70597587108123      -2.92095083168713       0.15869379232976
H         1.62383008818853       2.44354006367994       1.00722751476511
H         0.26286842054427       2.08477144880696       2.10424958845497
H        -1.80640189134450       2.38520198382908      -0.89709428202792
H        -0.45463284178964       2.11503523664647      -2.03261163576399
H         1.78548135046920       1.40265892743208      -1.06579903751241
H         0.63778370412408       0.13323795979576      -1.51615257445630
H        -1.88210978706477       1.22519870296429       1.12854010807118
H        -0.64662106339612       0.01187092239329       1.49864595261779
H         0.71468645338680       4.56997580013527       1.10895997381136
H        -0.97768940231581       3.93581627252776       1.32449390662066
H        -0.99154800141392       4.55300871440671      -0.98688989187729
H         0.72670232556385       3.99680359806301      -1.21455753882144
H         1.08986533772505      -1.13607864744527       0.55618027329253
H         2.11172616409967       0.19497362616088       1.21016115425294
H        -1.04281637648261      -1.13622955863944      -0.68844162920631
H        -2.21863122715641       0.13926944977003      -1.17111432388357
H         3.70207249248475      -0.08361692589784      -0.69474835365902
H         2.66190025812850      -1.39156656619830      -1.37870365746792
H        -3.64274146857923      -0.45586778408540       0.81764548346480
H        -2.46127735924150      -1.74843751916005       1.25752504442883
H         3.00718902308531      -2.75545089888497       0.70019200252035
H         4.04265002530580      -1.44715128810018       1.38898286698408
H        -2.86514548959668      -2.86091788824988      -0.96598952068197
H        -4.05123056155200      -1.56856008621565      -1.39058148319744
H         5.41419670991887      -3.26424143072271       0.38917538176013
H         4.61189899710338      -3.02057762521334      -1.20823203657692
H         5.65427569896552      -1.71580943587999      -0.50524475493567
H        -5.22849499511654      -3.57228707246771      -0.57323459097000
H        -4.27399243712097      -3.56138120440184       0.95606124747185
H        -5.44754189381411      -2.22548790431126       0.60604314194592
Cl       -3.17936892901871      -3.83930415037625       3.78691559195528
