43
C13H10F18NP optimized with ForceField in AMS.
N         0.14773243219846      -0.00610027116671      -0.37298340226709
C         1.58780631708843      -0.00110816614740      -0.65699922619348
C        -0.52185062250280       1.17976511650440      -0.23896355600214
C        -0.51425173958828      -1.19572064586961      -0.23259176717694
C         2.38502653543602       0.03343523792993       0.64165905219214
C        -1.89158660225916       1.19410269993295       0.03482087718552
C        -1.88392550894682      -1.21679971561884       0.04168598346307
C        -2.57443687538332      -0.01312938882869       0.17439976677903
H         1.87435515754054      -0.90456084495069      -1.23983593009934
H         1.85762564039100       0.88137087953830      -1.27861499762172
H         0.00238757253226       2.12282879164267      -0.34125063978846
H         0.01587040685837      -2.13595797778588      -0.32887407889809
H         2.11538111538179       0.93367436733098       1.23341629996995
H         3.46993521678887       0.06985983896764       0.41016408695206
H         2.17455531144550      -0.87657833721820       1.24284533842277
H        -2.41807287472031       2.13406666878734       0.13873505751251
H        -2.40460896998771      -2.15936833656537       0.15141733337453
H        -3.63565197240862      -0.01573044149709       0.38679181734445
P         7.46968199543408      -4.76806123386513       3.06318847521145
F         8.42039268248747      -3.64546750870393       3.95860872120800
F         7.80356246556419      -4.67703167653633       1.37447415290944
F         7.21468212304451      -5.25353009787553       4.69419715436339
C         9.21893031687655      -5.59368007354122       2.92804521296742
C         6.60753865399217      -3.04271248040226       2.88330014565253
C         5.98967975298256      -5.99475188442440       2.87279194418213
C         9.91410435525394      -6.01382128418078       4.25023809978654
C         5.38860038217569      -2.95642174210637       1.94023450649297
C         6.28962266531802      -7.49676813715442       3.03096175700673
F        10.08573962011302      -4.71085215613422       2.29523862192856
F         9.14357730619794      -6.71770571791150       2.12949660128435
F         7.52344133749758      -2.11420148192930       2.39623776832769
F         6.18128180348099      -2.61811696390411       4.13440610589558
F         5.45805256132859      -5.85197231353476       1.60405777539370
F         4.99276092522966      -5.66794359827008       3.78122968298855
F        11.09961008661797      -6.65757250152540       3.94184186470255
F         9.14437329139114      -6.88725616475807       4.98754161625989
F        10.22613141772998      -4.91824032036977       5.03471880028003
F         5.02053300672071      -1.62866179428663       1.81704971711381
F         5.68930202134348      -3.42820817151231       0.67628027188794
F         4.30010911416433      -3.63613858523878       2.44917131128108
F         7.02887674268691      -7.96733640548319       1.96340285688758
F         5.09121829739211      -8.18904263295973       3.04075101942705
F         6.94181866221225      -7.77305099337753       4.21201514461226
