44
C12H24F3NO3S optimized with ForceField in AMS.
N        -0.22761604941856       0.30730602215320      -0.17249505954667
C        -0.92651920358309       1.28393487137969       0.72663538213625
C        -1.12095433810227       0.00776861390933      -1.33866105079133
C         0.11678459230200      -0.93483964483735       0.60492933271003
C         1.00269527678775       0.96742193881263      -0.73199176901470
C        -2.33492721580545       0.83727096985812       1.16943192080005
C        -2.51433720850080      -0.50995607267027      -0.94352580043714
C        -3.21441630167252       0.48981976583825      -0.02833063255158
C         0.91575489121874      -2.01105330981802      -0.17025495225272
C         2.11725368792449       1.29084989037948       0.29442853300149
C         1.22871154709901      -3.20518146966485       0.72820982997603
C         3.27533433538270       2.02653752347425      -0.37372311695094
H        -0.34204964441905       1.46211796793069       1.65440741505680
H        -1.03438425681905       2.27143589619897       0.22089684618883
H        -1.28032774975203       0.93100812745702      -1.94407977732116
H        -0.65340831408474      -0.71656249856513      -2.03738262774154
H         0.68629037206168      -0.66676329364582       1.52174724098304
H        -0.79668942379610      -1.42827827135215       0.98961584061910
H         1.44611835530285       0.34391999259535      -1.54052521815544
H         0.72333785201160       1.92285562729235      -1.23442762969328
H        -2.27710581566462      -0.02544175291049       1.86516039629302
H        -2.81269479675280       1.66786394335808       1.73300572045012
H        -3.12417340782191      -0.63942360473219      -1.86362258261580
H        -2.45285521149209      -1.50628857047985      -0.45947987488776
H        -4.17393521230783       0.05759586937571       0.32902264618047
H        -3.44620003620889       1.41623840902770      -0.59877225336179
H         0.33221578985530      -2.38943770754208      -1.03320808346345
H         1.88018762533514      -1.60816185554621      -0.53911853365025
H         1.73517340505634       1.93839944446826       1.10824994872677
H         2.52604389875829       0.36114714930090       0.74002222455385
H         1.79540131362363      -3.96675137690490       0.15180802055619
H         0.28869268643632      -3.66856501597395       1.09702535996116
H         1.84518432056985      -2.88583017321070       1.59538951902925
H         4.06562781044831       2.23776351718164       0.37736419486256
H         2.92673224441254       2.99047911973852      -0.80194547274632
H         3.71246385509339       1.40250766790700      -1.18029976653387
S         4.19923799265370      -0.12583750815439      -4.80327795103096
O         5.47586227750641      -0.26679578544764      -5.64476521600055
O         4.68177996127393       0.64203840566392      -3.56495739144705
O         3.97376198344500      -1.54726051347630      -4.26805921724498
C         2.78353571460698       0.61004846698811      -5.66551212727383
F         2.46858130867402      -0.15700399250159      -6.77030063896920
F         3.10649944053063       1.89034681098170      -6.07119028035754
F         1.69816041393120       0.65699123996302      -4.81217338674515
