32
C10H15F3N2O2 optimized with ForceField in AMS.
N        -0.68019313094591      -0.90953924653818       0.41536426616574
N         1.50971119579803      -0.54237375176320       0.32642303870046
C        -2.08512487979650      -0.79898315527931       0.80228064652427
C        -2.89298846026965      -0.04835488222135      -0.26378057776855
C         0.36284553399425      -0.26798437737354       0.97713634679233
C        -0.17627951652675      -1.61585497658003      -0.61701728028726
C         2.82282945584080       0.03927278903409       0.58576714447938
C         1.18337594651278      -1.38476122012853      -0.67426222007228
C        -2.38522133948649       1.37852199518960      -0.47040905098415
C         3.09891045733890       1.16942901603060      -0.39887014526073
H        -2.17280903808567      -0.26671283707842       1.77510718425343
H        -2.50810730962320      -1.81783818436300       0.93654226595292
H        -2.84849367609926      -0.59876706334101      -1.22808422993248
H        -3.95630938363702      -0.00731473441653       0.05620070122723
H         0.28215159567434       0.41566589413869       1.81400543610714
H        -0.75717229611117      -2.23343754030755      -1.29020666209947
H         2.86237232340523       0.44035527029136       1.62190448802579
H         3.60369705478320      -0.74489317639085       0.48815018098005
H         1.87901988460045      -1.78443325474705      -1.40117687488352
H        -1.35348409283177       1.36938208764241      -0.88162135504598
H        -2.39109716851945       1.93555020318766       0.49038945269156
H        -3.04346514925677       1.90622504347425      -1.19174467894748
H         3.10436541941677       0.77919457820265      -1.43845934339492
H         4.08615568704411       1.62614946649428      -0.18232981985702
H         2.31667512487470       1.95257020677512      -0.30620667791659
C         6.97390687615428      -1.33969450186554       1.97468753665559
O         5.80328973549713      -1.68500783600004       1.96590348592942
O         7.80824060225153      -2.05164458246341       2.50933617760556
C         7.39260209263216      -0.04867458699718       1.33624354444308
F         7.95437245264016       0.77755721081378       2.29178246042035
F         6.30369801882175       0.59085300457854       0.77230192016908
F         8.32579484240902      -0.30291999909829       0.34832090362708
