54
C14H26F6N2O4S2 optimized with ADF in AMS.
N        -0.17561859188812      -0.31996438745538      -1.09739510043440
C        -1.05737651246593       0.49174615900427      -0.17623881001986
C        -0.82971317181345      -1.66552512898540      -1.37731891569035
C         1.15403397668870      -0.61951861710488      -0.41299557422433
C        -2.48195094082468       0.64106020772313      -0.69054804354642
C        -2.24649194780044      -1.53766289668473      -1.90619591228801
C        -3.12462680595298      -0.71954910893960      -0.96138911547338
C         0.07414610556641       0.40006704843273      -2.38923975494745
C         2.04074243868329       0.57041085366283      -0.10598044857772
C         3.35053279406271       0.06211785544969       0.50831707845860
C         4.34452938770587       1.19150124883302       0.76329278426168
C         5.66935253129124       0.69049515196470       1.33522953226620
C         6.66359715685023       1.82031797483181       1.59046837430131
H        -0.56860059406635       1.46612103337594      -0.03923779501486
H        -1.05157368157478      -0.04181742823379       0.78809795354096
H        -0.82562924346431      -2.19984051076315      -0.41339956423157
H        -0.17412199994996      -2.20549173385428      -2.07576708448039
H         0.89317337527567      -1.17057219792287       0.50491243394659
H         1.66702002277292      -1.30496224233517      -1.10037480516096
H        -3.04792972454478       1.19911135388662       0.07360841134008
H        -2.49745363113497       1.26256348732011      -1.60143685342477
H        -2.24392625384920      -1.09698650429619      -2.91702042862589
H        -2.63364528127479      -2.56258562779162      -2.02581847711461
H        -3.24057308504428      -1.26501488266404      -0.00645488122067
H        -4.13437779758168      -0.58892861303755      -1.38085184223493
H         0.52695077460043       1.37254592460452      -2.16851029158604
H         0.76568324425514      -0.20974662449914      -2.98530446554725
H        -0.87510377943245       0.54068685781779      -2.91319640964149
H         2.29531347477194       1.10298259401120      -1.03554217763565
H         1.55730951650090       1.27796502865065       0.59041162013413
H         3.13968825401821      -0.47199500288467       1.45396186967499
H         3.80905022540108      -0.66924374496323      -0.17964018778056
H         3.90101721082728       1.93486858594056       1.45342223990886
H         4.53746176631577       1.71734142199393      -0.19037244047666
H         6.10490327317557      -0.04147695972872       0.63179918971249
H         5.47577028841932       0.14355201389976       2.27680752232094
H         6.89211697423421       2.35850836958083       0.65622777740234
H         6.25476482959467       2.55143645080009       2.30741239097908
H         7.61180085778423       1.44046589971073       2.00005718575561
N         2.22950954113551      -2.06210459850899      -3.16405565429338
S         2.09448970441729      -3.67099785782716      -3.24619446503395
S         3.61887704299770      -1.24052939915135      -3.28557598936647
C         2.81751447315553      -4.36799482278642      -1.62954296331719
C         4.23329891171024      -1.38667450230251      -5.07819408514069
O         0.66388340922411      -3.94355185222004      -3.09890634826958
O         2.87108738111343      -4.31358213593873      -4.29370223042293
O         4.71317993200409      -1.75519649028474      -2.47013859561726
O         3.23444152211927       0.16821196573615      -3.17062794108672
F         2.29069226333909      -5.59760731848672      -1.41721130962934
F         2.47759260401638      -3.57820758243060      -0.56729814900925
F         4.15557406512645      -4.47458245292731      -1.67163396348309
F         5.03526945639165      -0.32247895824256      -5.32729144278882
F         3.19473784438355      -1.35753208532715      -5.94505161592289
F         4.94151178803306      -2.51258231635236      -5.27057215604405
