48
C12H28F6NP optimized with ForceField in AMS.
N        -0.00345858564500       0.00039605379661      -0.00061341473418
C        -0.85050866966105       0.64444345439509       1.06655114335326
C        -0.85476185735599      -0.63739376685568      -1.06777107842586
C         0.84133688596949      -1.07042465566885       0.64008738596078
C         0.85053156373419       1.06447112191089      -0.64145152730687
C        -1.92084137156771      -0.26577727584773       1.72297687930203
C        -1.92006461120404       0.27862878206232      -1.72288362323318
C         1.89087735988798      -1.74439662287928      -0.28011151520036
C         1.92331133570973       1.71320385077329       0.27109272482786
C        -2.71330190931155       0.50158933063540       2.77875372372758
C        -2.71459617341986      -0.48570864989113      -2.77956425482758
C         2.69592154205394      -2.78981017539507       0.48903874655576
C         2.72337398138930       2.76571016174304      -0.49320635566109
H        -1.35859790635450       1.55095622944088       0.66819220607277
H        -0.20788712063665       1.01032093901431       1.89593465439658
H        -1.36677295825652      -1.54207040234822      -0.67026888439690
H        -0.21459916383606      -1.00462879484360      -1.89854974123157
H         0.19691984730665      -1.89224955659946       1.01862570590836
H         1.36341516219826      -0.67139257778844       1.53822869538727
H         0.21283798961656       1.89802703707791      -1.00668893867649
H         1.35757349412467       0.66632768965904      -1.54846455405875
H        -2.64403525125008      -0.64586585216086       0.97473990977620
H        -1.44859747863720      -1.12972850932112       2.23097810674958
H        -2.64234004965768       0.66037999836567      -0.97461611792093
H        -1.44274008513200       1.14144518331279      -2.22844704925754
H         1.39932753671733      -2.26564456131085      -1.12542721792332
H         2.60398515679706      -1.00351560890057      -0.68979944125867
H         1.45183003455489       2.22106221909145       1.13582364007406
H         2.64222947649248       0.96008374601099       0.64893471101497
H        -3.46867813815407      -0.17077704283982       3.23908146623476
H        -2.03682086507586       0.87157845729588       3.57917219168079
H        -3.24048420437790       1.36346036008477       2.31664594031293
H        -3.46773667909544       0.18860217526266      -3.24042813978782
H        -2.03879581600927      -0.85843369591987      -3.57933922072704
H        -3.24446318710108      -1.34618813233787      -2.31769624077935
H         3.45959326212170      -3.23932337763507      -0.18127888995887
H         3.21422039706545      -2.32303358099444       1.35371886895602
H         2.02842697088924      -3.59839372224602       0.85731371777307
H         3.47860739925934       3.22252136069909       0.18172215089537
H         3.25189548746833       2.30110147751409      -1.35296020777202
H         2.05201916734356       3.56936883334450      -0.86574042770055
P         6.61385144455502      -0.40881949813567      -0.27888478947431
F         8.26521246922722      -0.20938115760062      -0.70863176524541
F         7.00873205144952      -1.76701704893579       0.69619626316517
F         6.86542475421553       0.65655958354447       1.04464292127928
F         4.98423487168071      -0.54045592508304       0.23845760093862
F         6.16408997233376       0.90251931898784      -1.29347825819973
F         6.32554840877764      -1.47966613668389      -1.59128864658471
