41
C11H21F6N2P optimized with ADF in AMS.
N        -0.19259615581551       0.48290119386474       0.69531886140861
N        -0.10915855469128      -1.60238548936206       1.29973352326679
C         1.25361275523349       2.42221606279852       0.00453197533178
C         2.14627128743763       2.26922886672520      -1.23154773136977
C        -0.10803513334113       1.71342683977632      -0.11009679666185
C         2.52340219165809       0.82496177100446      -1.55657633509374
C         3.64055747857960       0.71160211014680      -2.59345180964319
C        -0.00950556387047      -0.76992405197227       0.25867701589349
C        -0.38718359321071       0.44563606090365       2.06187896244401
C        -0.33421076126152      -0.86374204072774       2.43814604884125
C         0.03542694731590      -3.06489224872094       1.24188783033139
C         4.06886774011159      -0.73734654321239      -2.81708801912511
C        -1.30801958047967      -3.76786174511574       1.35388285633054
H         1.07063180304180       3.49267016986591       0.19669019640130
H         1.78662229633785       2.02071917480814       0.88219734934272
H         3.07229172971532       2.84063956864105      -1.04133582512206
H         1.66333680208058       2.74810758196415      -2.10560563894687
H        -0.93516251191198       2.35218262762519       0.23596628294557
H        -0.32997102446031       1.43018366193575      -1.14974853376203
H         1.64093759073820       0.27554949068829      -1.94107726925652
H         2.84509936120601       0.31589136675396      -0.63573024052471
H         4.50771713380820       1.29584854159181      -2.23592049724788
H         3.31983583163891       1.17344840703646      -3.54655619851113
H         0.23405949860629      -1.05569347549265      -0.75503493934271
H        -0.49826668199704       1.34987891296902       2.64698150577002
H        -0.37647241863725      -1.32333431689245       3.41706100025894
H         0.54823890527754      -3.28961264602341       0.29723439714468
H         0.73417459684842      -3.33230804714393       2.04744081362190
H         3.22922875653858      -1.34586588948675      -3.19209642057029
H         4.41001175138654      -1.18358097803069      -1.87015851464111
H         4.88808203664714      -0.81045864901071      -3.54936685936135
H        -1.80780251392855      -3.53565380434358       2.30567675623793
H        -1.15292039510289      -4.85595806430292       1.31259761907763
H        -1.97875404864962      -3.48431054006932       0.52937248833685
P         3.54809822549428      -1.38235024675740       1.82841136347432
F         4.39930826979770      -2.78127476188029       1.85441302124359
F         4.37547338494578      -0.79177263519865       3.11012922060470
F         4.61668462244976      -0.69794167511380       0.77706861102594
F         2.61642042379277       0.01271189757709       1.78089020086234
F         2.66231582689920      -1.95910931801133       0.51836308710790
F         2.41150764997076      -2.05163999120749       2.86160084407613
