29
C9H12F3NO3S optimized with DFTB in AMS.
N        -0.55934306865710       0.09122432704182      -0.61091175841606
C         0.79776989420120       0.16738002258896      -1.16351848629845
C         1.81365834514176      -0.40051349554092      -0.16585556141378
C         3.21623593150718      -0.32910809262319      -0.76194746037465
C        -1.17657333988725       1.20905214897251      -0.19841412656667
C        -1.15605793084044      -1.10634312465593      -0.51300218648803
C        -2.44939248995878       1.15504287900120       0.32874314196133
C        -2.43082336596384      -1.21074003019840       0.00712241086706
C        -3.09533283299648      -0.07108506710507       0.43382987928594
H         0.82142723076019      -0.41367242798679      -2.09074880118536
H         1.01625355920707       1.21407489178659      -1.38865544340403
H         1.56009506938892      -1.44285214438648       0.04346033473806
H         1.76058609941351       0.16687815709425       0.76938903037461
H         3.25569775543295      -0.90110647453939      -1.68877805509234
H         3.93208021061175      -0.75104994791777      -0.05743108153603
H         3.49603023168695       0.70433691366694      -0.97133868406469
H        -0.63559382638933       2.14150058342064      -0.30669672655163
H        -0.59214167974268      -1.96848266245357      -0.86734515105291
H        -2.93000417792150       2.07035413742686       0.64993081652403
H        -2.89602700850587      -2.18640474082563       0.06676720337074
H        -4.09816185398560      -0.13125428016609       0.83878323934997
S         1.10905596826139      -3.04646730864518      -2.91281834152148
O         1.65039549016991      -4.24971749549712      -3.47496821280246
O         1.75513019071370      -1.80463774752723      -3.30677544912665
O         0.79793134976453      -3.10325260757898      -1.48359002734839
C        -0.58833534101219      -2.86251793832791      -3.65267342265576
F        -1.41554931086225      -3.81961018077983      -3.24300739451337
F        -0.58731790605908      -2.84068328240164      -4.97468925534224
F        -1.10908376747861      -1.68841058774262      -3.22529705981676
