42
C10H18F6N2O4S2 optimized with DFTB in AMS.
N         1.24351849104062       0.47193455488362      -0.45786233021944
C         2.15837252258753       1.05631039945805      -1.50677596280319
C         1.08578080009121       1.57597180777103       0.54788361194185
C         2.99990267885037       2.12864795348232      -0.81347635814731
C         2.44975349713401       2.24727849005107       0.61002390746406
C         1.88448051407647      -0.71360262346054       0.21851502288032
C        -0.06893267733499       0.11775169505605      -1.08448464242411
C         2.00015618880055      -1.95206623290112      -0.65425726502361
C        -1.08984721491355      -0.44033118572892      -0.10413691885885
H         1.53273569444680       1.48915844469511      -2.28954429204871
H         2.76766252253303       0.26267706864517      -1.93721344792735
H         0.76069474564248       1.16170104536496       1.50194204274662
H         0.32530047959838       2.26358463129898       0.16909243316501
H         2.91080933047691       3.07508338125183      -1.35062915520082
H         4.05089099740446       1.83765115622523      -0.80048622814110
H         3.10097698631098       1.73382686374703       1.32004862643096
H         2.34972445128785       3.28738073970108       0.92302602959733
H         2.87860314859645      -0.38876242261302       0.52738333176537
H         1.29551279289486      -0.93421851096271       1.11150922663236
H        -0.45893739561836       1.03154443813368      -1.54035457938194
H         0.13642045458311      -0.60387643739447      -1.87785527687515
H         2.62599170501332      -2.66582780234843      -0.11896489896793
H         1.03232163704523      -2.41538591941678      -0.84039978798630
H         2.48245685090828      -1.73626727892243      -1.60522302866455
H        -2.02004000809287      -0.60481360404710      -0.64738696482630
H        -0.76900242974688      -1.39071068134736       0.31731586910784
H        -1.28488471094812       0.25943908275028       0.70681523229889
N         4.77813208555880      -0.38526959407759      -0.60568413909958
S         5.43627752248762      -0.95652258532582      -1.95626206228388
S         5.66496272665241      -0.28884385357435       0.72949486736170
C         5.77691679520065      -2.78670307155198      -1.71451472104418
C         6.87813533432379       1.12527146932201       0.52017245480169
O         4.35026853057896      -0.93652333830431      -2.91656633192804
O         6.69142166637067      -0.35884201150865      -2.32797955956259
O         6.45300720933256      -1.45396248915044       1.03292481657657
O         4.74287192377264       0.20221379511291       1.73592726810860
F         5.60356750974206      -3.40600599846000      -2.87159646101648
F         4.90208909065050      -3.28043285844342      -0.84222157567922
F         6.99832482781462      -3.00707564391070      -1.28541514295757
F         7.10512642731011       1.67396921598659       1.70332332790294
F         6.33297117579091       2.04699676968862      -0.26947941678352
F         8.01737613164557       0.72364326072454       0.00374548956953
