25
C7H16ClN optimized with ForceField in AMS.
N         0.82265008598372      -0.01871523800863      -0.03854992042761
C         0.07833908885095       1.21729361233611      -0.41887641915578
C         0.04816246774112      -1.24008473230428      -0.40441374470165
C        -1.35061856252031       1.26748091630869       0.15038158922472
C        -1.38161194096556      -1.24824902890160       0.16480066079534
C        -2.13634518547474       0.01684838375177      -0.23962157716143
C         1.15711187546535      -0.01399159014832       1.40962967710662
C         2.10073166281941      -0.03918365924519      -0.79152359980773
H        -0.00251871077175       1.29244914979004      -1.52845947629937
H         0.62667495131927       2.12562292223204      -0.07888564929103
H         0.57408160125108      -2.15740421360427      -0.05339120808894
H        -0.03437695126392      -1.32579862070955      -1.51309961923260
H        -1.87026680405107       2.16112588334730      -0.25779091383166
H        -1.33200256967352       1.37965972240665       1.25461350630452
H        -1.36585010169370      -1.34834209369664       1.27022608477545
H        -1.92299676874586      -2.13333921481751      -0.23352009404866
H        -3.12802098974801       0.03188996327529       0.26188795654465
H        -2.30630537986959       0.01268009007891      -1.33892128181510
H         0.25534377820285      -0.00041716018783       2.05244686505204
H         1.74353418127105      -0.91842256647912       1.68711786986310
H         1.76277728100549       0.88089072295696       1.67657662204195
H         1.92507910533774      -0.04199690385249      -1.89093984022071
H         2.71828772196391       0.85458945043387      -0.55315472955101
H         2.69951449371885      -0.94487885163701      -0.54407009165018
Cl        5.08741924514725       2.61978874287482      -0.76090441562493
