79
C23H36F18NP optimized with DFTB in AMS.
N         0.53883698203656       0.74812427228084      -1.53086598840350
C         0.42568118103358       0.22624261336292      -2.93460468809634
C         0.11352736531502       2.18616406871767      -1.51500290914613
C        -0.31177901794908      -0.04718161881041      -0.57714686641854
C         2.00078230792258       0.66939871209056      -1.16235071148059
C        -0.96659580339815       0.38119954880827      -3.52383513208023
C        -1.27844770388499       2.41049783362018      -2.09884967405823
C        -1.38556701799177       1.84940067353339      -3.51656157685168
C         0.03932393830900      -1.53043290975889      -0.48767411729078
C         2.35517409255040       1.22615940572117       0.21657792470015
C        -0.81268583122685      -2.20231427000096       0.59459768925680
C         3.75647828031956       0.74765573605115       0.63111501297100
C        -0.44045815176948      -3.68372039394926       0.71570331752476
C         3.73939087431092      -0.68275019664294       1.18110927197860
C        -1.26290826743341      -4.37814978608503       1.80496787717470
C         5.15824343812551      -1.24098871546259       1.32706561217389
C        -0.88340522322056      -5.85286515027295       1.92708742703392
C         5.13207968090121      -2.68655401285109       1.81949775675422
H         1.14360023779227       0.78641483891786      -3.53698070177452
H         0.73123051330877      -0.81774865132856      -2.92178736471538
H         0.14867743584647       2.53338178017944      -0.48044500737049
H         0.85459660095532       2.73812120234768      -2.09970476806970
H        -0.21698956274442       0.42219386569916       0.40474239286484
H        -1.34910012143189       0.05995779131869      -0.89839628556879
H         2.28629591799239      -0.37753793031580      -1.24574231618212
H         2.54762551184526       1.21885748303761      -1.93174604324800
H        -0.92201781689034       0.00870439345662      -4.55022004758133
H        -1.69538601525890      -0.22691569981836      -2.98136521342249
H        -2.04047313962728       1.96024095975321      -1.45680405715262
H        -1.45375515914883       3.48961318078426      -2.11100954029212
H        -2.41315242302261       1.94921010027527      -3.87322889089414
H        -0.73429951779229       2.41973117984467      -4.18624830857681
H        -0.14414520834983      -2.02341829509872      -1.44426381130601
H         1.09229418121786      -1.66544604848175      -0.23575367431784
H         1.63490814000905       0.90719775788311       0.97438294409673
H         2.34484078387633       2.31947503993752       0.18407966002764
H        -1.87416377296244      -2.10480422690582       0.34264520714666
H        -0.64734713788195      -1.70067256980499       1.55447784697496
H         4.14066600674207       1.42493794362060       1.39977167177354
H         4.42742719969813       0.80829091143920      -0.22935035592044
H        -0.61086632291873      -4.17918460901095      -0.24560555371472
H         0.62563325736500      -3.76966687362330       0.95046652462546
H         3.23172616806798      -0.69292132553823       2.15231706769892
H         3.17408610052801      -1.33413740498911       0.50840034553183
H        -1.09369599209445      -3.87693900021137       2.76428736226389
H        -2.32883710779178      -4.29337795234367       1.56682286097889
H         5.66226051579018      -1.19927039302971       0.35648246212515
H         5.72615336966079      -0.62095671469521       2.02905637335333
H        -1.47868247087752      -6.32842672750027       2.70674456416452
H         0.17181045076699      -5.95516411756160       2.18326844725727
H        -1.06375272443891      -6.37262857649266       0.98536269524807
H         4.64241722959024      -2.75287751257492       2.79249359626490
H         4.59097326466656      -3.31784010645487       1.11385994047554
H         6.14953047611650      -3.06570803729704       1.91493741529861
P         3.73406441526954      -1.97604376269751      -4.42477025945931
F         4.01532186142547      -1.20946241104888      -5.88283936480940
F         2.94067808112920      -0.55824874003491      -3.85410844972071
F         4.48444015715866      -3.38643688628877      -4.90801550457976
C         2.05934430269569      -2.63443968216312      -5.20560952877631
C         5.47539013767026      -1.26047046310461      -3.88153692006829
C         3.29143550614221      -2.74657171774518      -2.61557216872961
C         1.95454075317670      -2.71119277097214      -6.75344450414740
C         5.55937839415260       0.24822450088384      -3.53028423934996
C         3.71300050894556      -4.15694417189732      -2.13092827669182
F         0.98999519094860      -1.89258840894675      -4.81963177232227
F         1.84874621172213      -3.87926937357995      -4.74399970218332
F         6.33206818146654      -1.45688815111266      -4.89484587495713
F         5.96810741882064      -1.93084985054229      -2.82282082768179
F         1.94084973693066      -2.69341096714330      -2.45719659118069
F         3.78012612499377      -1.88495505807341      -1.68630619757443
F         0.87915601532611      -3.43109220635712      -7.09281822229433
F         3.01585990022409      -3.28148248155230      -7.30369622159284
F         1.79840930270376      -1.49572490541324      -7.27491289240236
F         6.81955101272422       0.60827359451412      -3.29197833149391
F         5.09208464591925       1.01260123474655      -4.51021363381538
F         4.85332168227661       0.53128620245612      -2.42280459630609
F         3.15445695268610      -5.11809024447072      -2.85367360051872
F         3.31210098081307      -4.32134420072255      -0.85904803215189
F         5.02909542492441      -4.31461703410393      -2.16159689549753
