37
C13H21NO2 optimized with DFTB in AMS.
N         1.13158214934023      -0.88143144091244      -0.18235583203057
C        -1.89122978345672       1.44193634543527      -0.43875150405926
C        -0.49983461886754       0.94188904989978      -0.03614985294027
C        -3.01575470212012       0.67765255880979       0.26899866054997
C        -0.18032345712986      -0.43313747087524      -0.63960683500925
C        -4.38772940714352       1.27016332468246      -0.06895562664773
C        -5.50917779354304       0.51638761242597       0.64436973876783
C         1.20110724024101      -1.69975178972824       0.99391653618681
C         2.25698129252839      -0.52013868617393      -0.86100748178632
C         2.52163805326788      -1.58515371804517       1.67824696443913
C         3.49328454238683      -0.68157014090387      -0.33355569660832
C         3.60817305753562      -1.16389080853724       1.01037459158036
H        -2.01185143829639       1.35581555178667      -1.52446666690644
H        -1.96476360302600       2.50422288130033      -0.18232328693402
H         0.25489211261073       1.65707520285121      -0.37887545813891
H        -0.42918302251742       0.88221146988817       1.05464094173117
H        -2.99538031299793      -0.37592836044818      -0.02668859498131
H        -2.85794561564410       0.72218572018319       1.35213923803359
H        -0.16893360049556      -0.37049759786030      -1.73260441018374
H        -0.92686173466580      -1.16996121618147      -0.33889903299321
H        -4.41257466145587       2.32469062438046       0.22725971846885
H        -4.54846349430916       1.22361749391448      -1.15154838890701
H        -5.37363025676424       0.56373650404119       1.72582009352994
H        -6.47490587413894       0.95731112439033       0.39557220646078
H        -5.51702359272462      -0.53179128653095       0.34230215265426
H         0.35136050149264      -1.48145855841887       1.65558480415664
H         2.09147350716758      -0.05904117834024      -1.82924899608289
H         2.56013921787731      -1.92001415255552       2.70683042238949
H         4.37319478161778      -0.38609338534741      -0.88748476904480
H         4.57768023948294      -1.13009094612113       1.49518438896373
C        -0.13411469608403      -5.12209090843723       0.22600091770743
C        -0.17407642039639      -3.65872624712136       0.60316027936333
O         1.03936488546044      -3.12718014488194       0.58783383167992
O        -1.18310912878217      -3.06379508293863       0.88608081127523
H         0.33544678890803      -5.22967464376914      -0.75005919437126
H         0.46600631824505      -5.66086473570471       0.95746186253202
H        -1.14344179770302      -5.52483294885611       0.20365056775481
