32
C10H19ClN2 optimized with ForceField in AMS.
N         1.90167872622566      -0.94223348365251      -0.17735265586150
N         3.12854596503431       0.91082602553100      -0.09854608143694
C        -0.38162572522362      -1.87551987177030      -0.01857194341109
C        -1.04068144093007      -0.52021545398260      -0.31487422045322
C         1.00365406696482      -1.98779073288591      -0.66681230202943
C        -2.45795944211392      -0.45770992404593       0.26368194055511
C        -3.09182159976215       0.91531026254703       0.00979264075933
C         2.35430248366070       0.12233503058888      -0.86853958023688
C         2.40776055061109      -0.82296487275001       1.06715402544499
C        -4.50748179932846       0.97967321168518       0.57425441047325
C         3.17035613033728       0.32658107617368       1.11497861992084
C         3.76601875586831       2.16392059759277      -0.48322519010773
H        -0.28777127593918      -2.01746217913781       1.08018782969618
H        -1.02205931971924      -2.69270378289815      -0.41739486428420
H        -1.08405966182361      -0.36185574390003      -1.41543883733329
H        -0.43079014160813       0.29334741396950       0.13596419265623
H         0.89756793540099      -1.91561990623948      -1.77146363360053
H         1.44001937651473      -2.98391162194093      -0.43666240325203
H        -3.08270643172891      -1.24699644463331      -0.21034440924540
H        -2.41643825050637      -0.64636535557338       1.35951925126390
H        -2.47746808571716       1.70739597120458       0.49196462022403
H        -3.13141930124433       1.11530914381696      -1.08352439845969
H         2.10451116187990       0.33207616444928      -1.90045485047707
H         2.22619525984349      -1.51209479838128       1.88121277936579
H         3.70529935088724       0.71160418458965       1.97262646327859
H        -4.49317843408880       0.80446595336316       1.67137115565080
H        -4.93767033231526       1.98482165234248       0.37978129799061
H        -5.15106616685482       0.21613083880022       0.08719504035367
H         4.86571602098660       2.07875683961830      -0.35541752587067
H         3.54474549073308       2.40337840431584      -1.54577137755575
H         3.38518224169534       2.98831396563913       0.15623477922511
Cl        1.82907485546049      -1.19150287983602      -4.59112795554303
