37
C11H23NO2 optimized with ADF in AMS.
N         0.28991485529823      -0.12414232888943      -0.09350592119699
C        -0.58372358801201       0.47556373168513      -1.16958997447534
C        -0.45297665730207      -1.28281128016822       0.57572730230071
C        -1.93587138020053       0.93061486861005      -0.64771972758252
C        -1.83894800901391      -0.89591775795086       1.05934302669122
C         0.67484410477576       0.88698212006689       0.97588493005941
C         1.53042301316685      -0.67306995752688      -0.77898930322212
C        -2.69157326902870      -0.24108420566655      -0.02247137148383
C         1.38299897778777       2.11752533626377       0.45349995178253
C         2.61530062392954      -1.17053180901207       0.15560456028284
H        -0.71663530540562      -0.32042098439283      -1.92133928636042
H        -0.01772674872788       1.29457166199912      -1.63498896933807
H         0.17744587345458      -1.57180457931445       1.44527983225620
H        -0.49731361716513      -2.07362687149581      -0.19228700621194
H        -2.49313586688944       1.35831132432067      -1.49809192001749
H        -1.80762471669031       1.74125141282580       0.08880017920903
H        -1.72507758303684      -0.26327409927736       1.95825434870126
H        -2.30807634269529      -1.82765230855678       1.41839679685189
H        -0.23901573507047       1.13717794893823       1.52606561001772
H         1.26611178692699       0.30660240197461       1.70501420916166
H         1.16279174236907      -1.48462299326112      -1.42611111991376
H         1.90402726095890       0.12923388073260      -1.43396319158597
H        -3.64739885545749       0.10545499994604       0.40177696811064
H        -2.93501897412152      -0.97245239633970      -0.81723475408945
H         1.64498034753861       2.72995089877801       1.32980086998346
H         2.32173880056656       1.88835848015527      -0.07347422447671
H         0.75478568274381       2.74159605840842      -0.20079144755651
H         3.34980162130391      -1.72591730092901      -0.44744003612224
H         3.14083049666752      -0.34410771575282       0.65282330256968
H         2.22725980112612      -1.82412195601715       0.94872465989453
C         0.92077439712032      -1.06536412242637       5.36359487262906
C         0.54190293962177      -0.76623519617882       3.90658718393698
O        -0.44366261557184      -0.00508025552769       3.69737236665397
O         1.28795982945978      -1.31800583163667       3.02233444179699
H         1.91745770968605      -0.64657579624206       5.57306273638533
H         0.19068563352907      -0.63706706663779       6.06368132324413
H         0.99514966215783      -2.15300126980421       5.51404145671413
