29
C7H14F3NO3S optimized with ForceField in AMS.
N         0.57425654809572       0.02010727614578       0.01308081486325
C        -0.30319891927137       1.09480192292326      -0.52680437839422
C        -0.32993762062342      -1.02236445407392       0.56920182632578
C        -1.73082539123072       0.78612020751766      -0.10974217464388
C        -1.74180620625219      -0.70373027315887       0.11457977341627
C         1.45674320326555       0.55618223748168       1.07655932951672
C         1.41702267638370      -0.54867514452249      -1.06624773843368
H        -0.27517954651271       1.13769907406770      -1.64097796276207
H        -0.01937566995426       2.11090855098557      -0.16759775143671
H        -0.32449708361437      -1.02900484162166       1.68438197963564
H        -0.05661195973451      -2.05167262482148       0.24907653856171
H        -2.46363432894662       1.08464360686774      -0.89081552618335
H        -1.96632610173475       1.31041546379934       0.84271007899611
H        -2.49662029359197      -0.99588160264868       0.87693856055267
H        -1.95615534419312      -1.22744251812007      -0.84323906476213
H         2.13871948881191       1.33725566502793       0.67179625565868
H         0.85796639124417       1.01677137369883       1.89444364540420
H         2.07996172132309      -0.25327071984297       1.51901301297223
H         0.78716510504300      -0.99080689179719      -1.87080107355190
H         2.05882004508477       0.23798067423339      -1.52322428559244
H         2.08123553438839      -1.35088145631304      -0.67304906550227
S         1.59123618881134      -5.58208391524313      -0.10429133942399
O         2.34643381489420      -5.14712916909888       1.16015177091923
O         0.97946370497388      -4.26995754182595      -0.61273673257609
O         0.37669975775316      -6.33721682804267       0.45502336892903
C         2.57663811470532      -6.48966262900088      -1.32903788894224
F         3.04753917593348      -7.66088047730700      -0.76885065037789
F         3.64425893356087      -5.71076229269524      -1.73072432837071
F         1.78950562298746      -6.78829161701476      -2.42408307979794
