67
C19H28F18NP optimized with ForceField in AMS.
N        -1.54407900107103       0.10690756506413      -0.08446214905038
C        -2.56148055152220       0.51374598019041      -1.10858883978214
C        -1.78525830393818      -1.32348397047553       0.29514131293460
C        -0.20136675246804       0.20589145346965      -0.75450992197280
C        -1.61474928105071       0.97138040179887       1.14533539201254
C        -4.01981993387745       0.28785273496973      -0.67391606779057
C        -3.22753635766632      -1.61566338776679       0.75562239363499
C        -4.24370053425092      -1.17150193284184      -0.29156497821426
C         1.02393155908370      -0.11999738208570       0.13602077303098
C        -1.26378393488243       2.45647697952630       0.94027060555283
C         2.32649875203103       0.04232263044848      -0.65882498996767
C         3.54927850278229      -0.29608327765671       0.20311754108788
C         4.84821438429915      -0.10504189184971      -0.58847213415507
C         6.06771881698844      -0.45950677942815       0.25742409907251
H        -2.41343290642854      -0.07051064194145      -2.04714098944191
H        -2.43823577847258       1.57624962397441      -1.40490147631910
H        -1.11328877218125      -1.63381507514844       1.12425349476774
H        -1.56604970357079      -1.99744429083117      -0.56507719948282
H        -0.06039598570929       1.22063758238418      -1.18890147723699
H        -0.16369257056641      -0.48473852149276      -1.62907132231646
H        -2.62510643818908       0.94784804297968       1.59683202228867
H        -0.95178448234612       0.57059073852738       1.94234565650780
H        -4.69110653533573       0.54116767886123      -1.52299452459593
H        -4.29961908316567       0.95823354510888       0.16446368984946
H        -3.44093553513123      -1.12465452743467       1.72791930072243
H        -3.33825750728465      -2.70963686687104       0.91887816942906
H        -5.27202262348376      -1.29712789301253       0.11100202798686
H        -4.14779692070615      -1.81216774280619      -1.19613698125705
H         1.06989551087810       0.56277355216213       1.00832057162148
H         0.96832253998493      -1.16612142168759       0.50083117401492
H        -0.22429843824686       2.59490166153525       0.58317614696551
H        -1.97309634251360       2.95323635364554       0.25092321943598
H        -1.34265255277369       2.97866649053934       1.91708863022369
H         2.40937903278200       1.09249801167865      -1.01637708112504
H         2.30593333365715      -0.63109820612496      -1.54412618744735
H         3.47716017730631      -1.35246056954496       0.54424636614789
H         3.56469688208241       0.36431317859190       1.09823421148320
H         4.83672964846238      -0.75363644371535      -1.49151707737936
H         4.93426400862972       0.95385983542731      -0.91684363594871
H         6.02278318758408      -1.52402151401199       0.57179853074147
H         6.99127365821040      -0.30439087942534      -0.33928262404307
H         6.11418457045894       0.18804598498108       1.15878419428978
P        -5.59393217748048       6.04106733290091      -2.81165969877457
F        -6.37388737303060       7.09816832800367      -1.69840689106884
F        -5.39547982027219       4.45389511817670      -2.16905846136612
F        -5.94736479799643       7.42028597215349      -3.77767690274981
C        -7.40289244682336       5.34136583250075      -2.84374695993965
C        -4.23315808251593       6.61550494147159      -1.56079956367316
C        -4.58290173929802       5.67515661629442      -4.41823000265118
C        -8.54358440114103       6.30949169385873      -3.26029520836938
C        -2.83784360645932       5.97103960834281      -1.69384232156942
C        -5.38064458806227       5.23742401394273      -5.66271151989442
F        -7.73105145482889       4.88203970623315      -1.57373088412193
F        -7.46056633471066       4.25049133737709      -3.68817285718240
F        -4.65146247864019       6.34275216113569      -0.26143927805164
F        -4.05952358407810       7.98744175869127      -1.68250921993512
F        -3.69633247822904       4.64566336438301      -4.15925812200739
F        -3.82911842876930       6.78814507710432      -4.76516263920756
F        -9.71704449180482       5.58537105045077      -3.37715585130764
F        -8.30474444861264       6.91539873759570      -4.47508237580690
F        -8.75253994404484       7.28797607959758      -2.30494788290726
F        -2.06103772120518       6.37095745235467      -0.62030725537032
F        -2.91118308370856       4.59153264078254      -1.66894458271475
F        -2.19610649227054       6.38633071482170      -2.84346256638439
F        -5.83188582942112       3.93829285774420      -5.52347522256884
F        -4.54453612126868       5.26909164760699      -6.76503454522247
F        -6.44409513021620       6.07367942266388      -5.91966879103045
