48
C12H22F6N2O4S2 optimized with DFTB in AMS.
N         0.81782169202767       0.03772735296777       0.59353327279927
C        -0.68968139874071       0.01341595196614       0.54494862237861
C         1.19478241533216       1.22970985241482       1.45117904561640
C         1.34483802654613       0.21107530963699      -0.80665014667839
C        -1.13273157122667       1.41385186532413       0.94027607116437
C        -0.10577787661543       1.79501284975830       2.00100874217453
C         1.34213477787566      -1.21191223263930       1.24414541714136
C         2.86754219021093       0.22578794281958      -0.91119224336384
C         1.04281081429264      -2.48724779387558       0.47544899970665
C         3.29179585711237       0.55550133946403      -2.34697135348763
C         4.81440420249064       0.60814344435230      -2.44914088062488
H        -1.04238044297855      -0.71496660586921       1.27798040265913
H        -1.02119856687670      -0.28809758023700      -0.44820429908786
H         1.88320912619205       0.90641817975377       2.22930585352699
H         1.70335757070802       1.96324259214406       0.82636684228343
H         0.93485326649569      -0.60234246929161      -1.41035435444760
H         0.92937177069010       1.15422770612077      -1.17287911379556
H        -1.07974071960215       2.09382754982185       0.08627676181624
H        -2.15289186993375       1.40754889256934       1.32508849907514
H        -0.35740259631189       1.33055164430286       2.95767100759764
H        -0.03073215140600       2.87328056546176       2.14234027437905
H         2.41854522667164      -1.08754483650747       1.35192450118429
H         0.89597586265413      -1.25111666835602       2.24070424953303
H         3.28867169547885       0.96993443700959      -0.23250522610930
H         3.27880679208997      -0.74662613008592      -0.63270339108205
H         1.38476148206484      -3.32273910707554       1.08561387842790
H         1.58233744511385      -2.51889721929875      -0.46929025693271
H        -0.02250896162924      -2.60959378477308       0.28409223132590
H         2.89888490167706      -0.20616999942591      -3.02949472364201
H         2.86795035428487       1.52176727218722      -2.64222977845968
H         5.25148012776369      -0.33826648389567      -2.13003680538914
H         5.20865852891551       1.40187095163185      -1.81474931519860
H         5.11337375484475       0.80156080727984      -3.47928229280131
N         4.12815799700641       0.36456895882042       1.86041993912781
S         4.60426645779412       1.72647999301330       2.57921652307134
S         4.99993346029551      -0.96443998045173       2.08099448127861
C         6.13438004009544       2.31907120754952       1.66847434863292
C         4.42743933074853      -1.68055382441500       3.71497361139025
O         3.59112141232430       2.69999656443322       2.22652681331959
O         4.97345869237849       1.59737659864973       3.96414050977555
O         6.42299965189723      -0.78686264327252       2.17336449149689
O         4.47693165172437      -1.91828141147931       1.12347783183936
F         6.10148172473824       3.64010279288124       1.59258029287965
F         6.12166605644831       1.82782141882686       0.43367320227579
F         7.23863276038223       1.94970270757213       2.27666762272561
F         4.62360308916049      -2.98885101715330       3.72110207772487
F         3.10937682142015      -1.46019857007270       3.81138757181221
F         5.02581946137398      -1.14811776045779       4.75536789706016
