35
C9H20BF4N optimized with ForceField in AMS.
C         2.67207307432390       0.34090389095115       1.60741150212428
C         1.63583758152636       1.27811880974897       1.00838189248906
H         1.37928245214268      -0.85372242588991      -0.88699527917671
H         0.41370507620589      -1.70122972409804       0.36316377711123
H         3.20269385761888      -1.37759089854218       0.38259801035130
H         2.18985839297591      -1.75769982140839       1.83365615970683
H         2.56779254595819       0.31391470508871       2.71419035710226
H         3.70312963053447       0.66889628523836       1.35237927902743
H         1.34271798672579       2.06686328460404       1.73904169901777
H         2.11598897246842       1.79585697440460       0.14414119653309
H        -1.23100239729135      -0.47933588171955       1.48128946731184
C        -0.45311867499940       0.28085814810849       1.70797366368436
H         0.08030034594899      -0.07192109605268       2.61829165261694
H        -0.96139796034513       1.23897502596763       1.95609600444098
C        -0.18278614787545       1.14938887880161      -0.58829822705359
H        -0.31372060580725       2.22730229493085      -0.33563009500677
H         0.47569381351105       1.13585240520020      -1.48659242382186
H        -2.30843069674128       0.73189664246748      -0.15792360570465
H        -2.97062781721162      -2.09206424830059      -2.65210524548886
C        -1.61956301154172      -0.77170574217574      -1.58239661860504
H        -0.80389708399978      -0.89968843840179      -2.32660585099308
H        -1.49262402162420      -1.51595551149256      -0.77224943429754
C        -2.95848836659593      -1.05248364704734      -2.26278179378865
H        -3.11442252911562      -0.35513730202264      -3.11335437272087
N         0.48089013707402       0.45905388979798       0.56558617155355
C         1.09245744637755      -0.83886469469265       0.18869533304206
C         2.36236703747001      -1.02117695985595       1.01821076466026
H        -3.79227945069590      -0.93359691374521      -1.53778688648363
C        -1.58986812973531       0.64686909997966      -0.99965779596759
H        -1.95573002252713       1.34789718128305      -1.78269255120074
B         6.79716464924838      -0.04287761276506      -0.39146019599621
F         6.68182881561674      -1.00338343883049       0.64850212548898
F         5.54518965894615       0.59791087794328      -0.58636485107415
F         7.18825502985497      -0.69059970665651      -1.59332105307732
F         7.77406531637869       0.92493689708125      -0.03599509010495
