29
C9H13F3N2O2 optimized with ForceField in AMS.
N         1.10432964289464       0.36045634563600      -0.36416920371117
N        -1.11918432466580       0.36551465105831      -0.38004170260604
C        -0.00535135423063      -0.22483464896510      -0.85534090596236
C         2.48846308725382      -0.02460857053935      -0.62830269024562
C        -2.50097285063342      -0.02416344656742      -0.64861586273252
C         0.67835626880720       1.35743150072751       0.43787660725243
C        -0.70058047590865       1.36145988076725       0.42685933484978
C         3.10042745474224      -0.68442687012531       0.60226120922929
C        -3.11264508928215      -0.68399760862062       0.58219113088772
H        -0.00261337140886      -1.07659480286360      -1.52376065314642
H         2.52893273469480      -0.74143748102161      -1.47753587489313
H         3.07840722167844       0.87453417550889      -0.90797345704155
H        -3.09313912855261       0.87288042744826      -0.93079222335562
H        -2.53664314097006      -0.74237195810866      -1.49690074600577
H         1.31941421450529       2.02645488045471       0.99616804682608
H        -1.34765720320310       2.03527571613448       0.97283705266524
H         3.10227423863277       0.02217036039125       1.45890447361557
H         4.14645609533481      -0.98553036134117       0.38338366360245
H         2.51689258778057      -1.58895586955508       0.87713985338996
H        -2.52695116297999      -1.58690398216764       0.85784866343085
H        -4.15830500216779      -0.98674160232600       0.36443293888339
H        -3.11454451301369       0.02318592035056       1.43844508117738
C         2.57895779285165       5.72917675675479       0.83344838635422
O         3.23309570011396       6.21749638205055       1.74130960247227
O         1.36028272669981       5.78294989737526       0.87262080261119
C         3.26146126329403       5.06874813660553      -0.32731432456364
F         2.84568957687010       3.75416848082378      -0.42208306118080
F         4.63546398887472       5.09498810193301      -0.16303735457794
F         2.93413885538789       5.73366107678142      -1.49442777162526
