28
C10H12F3NO2 optimized with ForceField in AMS.
N        -0.49753193263769       0.01321370352116      -0.41803257644957
C         0.92562345180677       0.01901589529185      -0.77783006131939
C         1.78674572658055      -0.01745390132959       0.48739388697132
C         3.27406985686537      -0.00590788879815       0.14991552371396
C        -1.15892661444178       1.19795618250284      -0.24245623803454
C        -1.14594231353712      -1.17734820497376      -0.23215425435678
C        -2.50689713703976       1.21000457944905       0.12390429284584
C        -2.49410476120239      -1.20087388520875       0.13323988178454
C        -3.17611485122908       0.00170163149629       0.31201739406752
H         1.16165413307398      -0.85871233365096      -1.42057841867470
H         1.16939139311111       0.92804535541149      -1.37220017340518
H         1.55374012709685      -0.93844487646090       1.06160205041623
H         1.55130772174818       0.86319147743685       1.12385882570372
H         3.53910537178987      -0.90048282501864      -0.45283805481903
H         3.86761846165340      -0.02125956607073       1.08835971113110
H         3.53335766612730       0.91187463077473      -0.41957834654788
H        -0.64358165526823       2.14173171288462      -0.37674623749233
H        -0.62041336852149      -2.11637184420162      -0.36031655584997
H        -3.02582625391368       2.14928096011892       0.26507708899739
H        -3.00363666605173      -2.14439437176082       0.28033423777052
H        -4.21946906303337      -0.00257576875550       0.59967406750718
C         1.46040221205999      -1.98825378915538       3.87557667399329
O         1.69732113621449      -0.79125335111511       3.90682922327983
O         2.07779687717176      -2.70523778907481       3.10462286156484
C         0.42215643580642      -2.58290013334314       4.77922593441821
F        -0.53755940702883      -3.22666595502005       4.02017341482527
F        -0.18767086964003      -1.59663414167002       5.53492579391059
F         1.01969000873913      -3.49624038147984       5.62778781094804
