76
C22H34F18NP optimized with ForceField in AMS.
N        -0.01206596929855       1.98666868176678       0.00539336452573
C        -0.69532963083834       2.89236128882034      -0.96931532611476
C         0.65308459737183       2.90304743923082       0.98233784488463
C        -1.02276852999341       1.14357976566450       0.72412456954891
C         1.01483991219115       1.16472463509141      -0.71506462460241
C        -0.21369803487388       4.30840978093672      -0.71919972561192
C         0.13616540367685       4.30813642504225       0.74169234590762
C        -1.76760443681050       0.12648035075093      -0.17399392689552
C         1.78009995372844       0.16085185158611       0.18111146216787
C        -2.87488486957253      -0.58527019489733       0.61315491811395
C         2.89823338159763      -0.53174838048744      -0.60837807485803
C        -3.61935251704576      -1.59581897296721      -0.26780028275115
C         3.65415659135539      -1.53878469592885       0.26754892624847
C        -4.69132338948418      -2.34018716701682       0.53649741658278
C         4.73719994213205      -2.26509986919270      -0.53881944213425
C        -5.44241480242776      -3.34004171141370      -0.33751189684070
C         5.46461453452895      -3.29791869511899       0.31715765228458
H        -0.51332907486328       2.61446669498188      -2.03252767544792
H        -1.80125692814666       2.90110064591937      -0.83291325816927
H         0.48216257513671       2.61502903750641       2.04470334319995
H         1.75786242872693       2.93898918185732       0.84126850716542
H        -0.54370786736276       0.58682651541604       1.55954584800942
H        -1.77875577414904       1.80424846134026       1.20919583290125
H         0.54605509896684       0.60019047841676      -1.55112614033157
H         1.75755888980763       1.84071309652917      -1.19943245035250
H         0.69658315746593       4.51097809495426      -1.32608003803041
H        -0.99654099729113       5.06259289510987      -0.95272121013464
H        -0.77890679663499       4.48383221195773       1.34978476068578
H         0.89991762464265       5.08008324623241       0.98017169428715
H        -2.21861618975568       0.63664618190033      -1.05079969739411
H        -1.06030359733241      -0.64399574635241      -0.54508309343540
H         2.22407236531979       0.67900228157228       1.05682348703648
H         1.08720993576915      -0.62185402112580       0.55370478340886
H        -2.42261463320358      -1.11555386258357       1.48034359001749
H        -3.59831598068709       0.16745656618828       0.99729915500041
H         3.61214222478507       0.23248807674027      -0.98749518948581
H         2.45375621336739      -1.06281133561771      -1.47913921089524
H        -4.10007046726563      -1.05924828695037      -1.11557424613499
H        -2.89404293424352      -2.33145644722983      -0.68052070562949
H         4.12757503036879      -1.00221108060150       1.11949260220400
H         2.93665014386644      -2.28521724016512       0.67435818370922
H        -5.41904831503236      -1.61208338474918       0.95655828800754
H        -4.21455239245212      -2.88750191847196       1.37881630572606
H         4.27462664061300      -2.78391688080677      -1.40673881548497
H         5.47619128084650      -1.52801142409005      -0.92197690944267
H        -5.95662600390289      -2.81460683220430      -1.17031598226443
H        -6.20466487263631      -3.86807351641882       0.27359112298523
H        -4.73967862731415      -4.09200589681532      -0.75568295616549
H         4.75561874881097      -4.07943516408291       0.66377516312443
H         6.26346894909471      -3.78232215811154      -0.28324653187759
H         5.92888047002570      -2.81281943734313       1.20052389678067
P        11.40242430930630      -2.28003753557090       2.05088760702790
F        11.67172677408113      -2.20922710503968       0.35201519450560
F        10.42078336191818      -3.63156203769376       2.47778458620382
F        12.60818254891180      -1.06118204393550       1.90714359016267
C        12.62705414711148      -3.76309761668409       1.80393676024616
C         9.81125211622722      -1.49135145196954       1.27887775916405
C        11.42893768744679      -1.54109365551721       3.83757335248846
C        14.02146274181416      -3.45049628714687       1.19497121400144
C         8.62554188743279      -1.22105103245271       2.22850413942435
C        12.62745348534722      -1.90732267056519       4.73488983800447
F        12.03670086578514      -4.69920066553646       0.96362654057265
F        12.83783705350182      -4.39465147538687       3.01291628896957
F         9.31167944791947      -2.32612741517890       0.28282737627899
F        10.15044213686883      -0.27708262112007       0.69853338308613
F        10.30437269906485      -1.98004524345352       4.51346829838429
F        11.35749611530824      -0.15595932062227       3.77418697773717
F        14.79294578871734      -4.59822657913403       1.24441249361597
F        14.69154015694232      -2.46699047077588       1.89011371238412
F        13.92330992368804      -3.07242464606821      -0.13226712498465
F         7.54601260916264      -0.79387612784650       1.47515467936278
F         8.24522011622734      -2.36646247814503       2.90299932767668
F         8.91384767888086      -0.21824518080490       3.13156685971434
F        12.54214092548022      -3.22007366250366       5.15730818695002
F        12.59992197073654      -1.10763609221746       5.86389493348739
F        13.83209696124126      -1.69690845159994       4.10194049910694
