29
C7H13F6N2P optimized with ADF in AMS.
N         0.55988988697042      -0.94450576718837      -0.42822004776555
N        -1.07483290856952      -0.93881268027232       1.00242465152361
C         1.69054540372608      -0.49527460562737      -1.25604712314684
C         2.97556563979476      -0.31694168826894      -0.44804246254915
C        -0.23985070434988      -0.15955141928363       0.30591304170279
C         0.24057038999961      -2.26142763800119      -0.16863786018632
C        -0.78557060595335      -2.25585529129766       0.72835067409009
C         2.97949285733313       0.92788285980794       0.43173934099931
C        -2.06844809501333      -0.47337471106428       1.96601234695882
H         1.38626934175733       0.44572215797322      -1.74179791226352
H         1.81016294359424      -1.25345934036042      -2.04414910186992
H         3.12993082833450      -1.21350275893524       0.17594831619092
H         3.80262659629079      -0.27446933090389      -1.17885405341182
H        -0.19765594808889       0.92045255700074       0.35168063618623
H         0.79277890210014      -3.08138054480830      -0.60989482941164
H        -1.29910105566834      -3.06766150610262       1.22676872314827
H         2.17317592362960       0.90048843070130       1.17834345410367
H         2.89592672189860       1.84478821801541      -0.17638182332724
H         3.91543677287860       0.98204583410823       1.00670345113913
H        -1.91737820126551       0.59811244845911       2.12856834592119
H        -3.07636202358534      -0.67010690038256       1.57699508127615
H        -1.88337754547550      -0.99466169497117       2.91324380234280
P         1.45613762324276      -0.88046627397047       3.73083953132001
F         1.84056217739641      -1.48600046229801       2.21749196022812
F         0.61582162915264       0.37118826979214       2.96633674505727
F         0.05406432076359      -1.80041876930548       3.68927935804109
F         1.01444664452907      -0.26806821720483       5.18321375231241
F         2.25748167302722      -2.12031498856568       4.43545524410752
F         2.81539552895018       0.04406950265436       3.70217676488256
