29
C7H16BF4N optimized with DFTB in AMS.
N         0.29821266046795       0.09964218760992       0.40622138602501
C        -0.38096196661963      -0.97339223330026      -0.38098836512548
C        -0.77525248454724       0.62949106354463       1.31359479973571
C        -1.78238829599490      -0.43620445099733      -0.64764579602483
C        -2.08602624279353       0.48769316897039       0.54165731403185
C         1.43326228873633      -0.43990299046071       1.22650040836897
C         0.76543872696266       1.19308837184919      -0.49158734505771
C         2.59826397446387      -0.94720091746439       0.39367139557435
H        -0.41783399627324      -1.87134272734462       0.24060151076364
H         0.18318686635071      -1.18263314091243      -1.28978789009756
H        -0.53678035044024       1.66202848436585       1.56980692826248
H        -0.77561854905019       0.02829471689913       2.22402859605599
H        -2.49794435261891      -1.25673326518673      -0.71959305275933
H        -1.80685186077606       0.12022344152936      -1.58717954143801
H        -2.44180371223517       1.45915541622273       0.19383276257536
H        -2.85444459770205       0.05760873290754       1.18672313995306
H         1.76505936966154       0.37266462174889       1.87721645058986
H         1.02322611095878      -1.24556179505096       1.84097035283556
H         1.37884202980964       0.77289326648786      -1.28550260555833
H        -0.10052552837420       1.69217556240097      -0.91920545644367
H         1.34282019644437       1.90072836667993       0.10184383704979
H         3.31120178057928      -1.41370896042337       1.07299412028347
H         2.28469691833640      -1.68895042758740      -0.34071454948712
H         3.10392509050670      -0.12797177628690      -0.11444292550036
B         1.56515257059437       2.83009426954780       2.45334736264092
F         2.59936537108788       2.26727619220765       1.65865706113019
F         0.57360330739802       3.30644496284349       1.55417164941506
F         2.02566437105687       3.81081563983136       3.27461248702919
F         0.97819966440998       1.75792848836840       3.17802116907195
