46
C14H29NO2 optimized with ADF in AMS.
N        -1.56369677563615      -0.26787615979224       0.06448018629706
C        -1.92369630357232       1.19042658761680       0.19018238662653
C        -2.55798181569073      -1.12367533217277       0.84013116070773
C        -0.19598559986737      -0.53740584115390       0.68068173810791
C        -3.36212248781830       1.48987646100316      -0.20590542700740
C        -3.99828887003140      -0.84342395391443       0.44997395686515
C        -4.35001655201980       0.63726405180305       0.58902598205075
C        -1.55138408802596      -0.72479025591558      -1.36827921625053
C         0.95845924925522       0.28188071895395       0.12623573530474
C         2.27825038044483      -0.32883636258301       0.61676464924714
C         3.50230887752780       0.38083281832741       0.04420441998306
C         4.81920517357823      -0.26956481201151       0.46623261009185
C         6.04377776547826       0.43995199593987      -0.10746883775973
H        -1.20805594606957       1.75392519514734      -0.42409373228062
H        -1.75629646818877       1.44942162314873       1.24959450796461
H        -2.39188637924630      -0.87641176030473       1.90157303033439
H        -2.25259636595247      -2.17004623605181       0.62798176874679
H        -0.31982627471910      -0.35994040886013       1.76149138681102
H         0.01076980031415      -1.61762983570998       0.47916136057240
H        -3.53697775960385       2.56387398403844      -0.02916613638654
H        -3.50116799883650       1.32700590683721      -1.28803749681527
H        -4.19016466495400      -1.19489140588004      -0.57801825136589
H        -4.63456868216240      -1.45933137587940       1.10659918728149
H        -4.30445047818706       0.92646483824004       1.65625484228101
H        -5.37955975964352       0.82835012005360       0.24571546597665
H        -0.77185219688554      -0.17298982188944      -1.90464847977358
H        -1.36038711292112      -1.81760504707855      -1.33940573640898
H        -2.52687769616187      -0.51567062821266      -1.81862578208614
H         0.96589728318786       0.23831587596883      -0.97571837470892
H         0.90543170713954       1.34644874553031       0.41758970692055
H         2.31740628371192      -0.29551385227648       1.72141336691735
H         2.28732029281238      -1.39393481296447       0.32914343060949
H         3.50180582035332       1.44376143102562       0.35344401061109
H         3.43925417750805       0.37823441018944      -1.06047548392246
H         4.81346203225150      -1.32601796865900       0.14314491011685
H         4.87922424764497      -0.28371609096393       1.56985249196228
H         6.01787628859168       0.43865008018707      -1.20950806543135
H         6.08293948637692       1.49046247696974       0.22434594932807
H         6.97944120758921      -0.04795169050767       0.20634879408416
C         0.07040068578345      -5.46443159078651      -0.58927061980087
C        -0.25138025360074      -3.97801803550528      -0.39589395941226
O        -1.47891492141007      -3.63950072404282      -0.47211576278110
O         0.73023020657987      -3.20077210554305      -0.20544259318576
H        -0.78581133666370      -6.09597762459020      -0.31594283182391
H         0.29636704390945      -5.64125560829491      -1.65295386161212
H         0.96139300653003      -5.74583814973611      -0.01090817018670
