51
C13H24F6N2O4S2 optimized with ADF in AMS.
N         1.22778694693777       0.89419613096220       0.18356270131977
C         1.40372147311046       2.25812283102029      -0.47400259880077
C         0.00085444390378       0.23107358356670      -0.41073647103390
C         2.46707838560864       0.07479923142177      -0.16719744327965
C         1.05670484355375       1.00420616393094       1.68834324508430
C         0.17874771036864       3.14124453275691      -0.35604215191349
C        -1.25587856512064       1.08618900926578      -0.31805452051184
C        -1.04891716773597       2.45910292422999      -0.95663663388806
C         2.56005360259426      -1.29073249444477       0.49035610267615
C         2.22382638786944       1.62384656599912       2.42630660077994
C         3.70810853468300      -2.09145343655087      -0.13557882756040
C         3.88136561474862      -3.45768142231108       0.52043552917939
H         1.63281754208618       2.04160397869767      -1.52788776999511
H         2.31080520658629       2.70391604753159      -0.05078263685523
H        -0.12956204776410      -0.73352995817885       0.09844994490680
H         0.25497310910156       0.04023806792176      -1.46540718968292
H         3.32717626262610       0.70954935584686       0.08428625663218
H         2.45586528928644      -0.01057928776443      -1.26369994382792
H         0.14471017825686       1.59041757592981       1.85408752469554
H         0.86186361979950      -0.02047484569543       2.03781034297072
H         0.41417400121381       4.07324524811141      -0.89582058666042
H        -0.00598208073526       3.43238087301612       0.69262869843678
H        -1.57727627227362       1.19243851680800       0.73165335609035
H        -2.06105177268158       0.53179329171371      -0.82883775805501
H        -1.94887326599675       3.08116204925885      -0.82893476834729
H        -0.89263307564961       2.33431766439446      -2.04365993888565
H         1.62659118511916      -1.86777827006405       0.36794137221595
H         2.74682720150024      -1.19209120784163       1.57337882182413
H         1.97966305469909       1.61318780038703       3.49980402702599
H         3.16248727418647       1.07362557359742       2.28383133002942
H         2.40818256107234       2.66369725297603       2.12959384754336
H         4.64216115248222      -1.51389245395038      -0.05117755198831
H         3.51420239863587      -2.21492836486695      -1.21551003020321
H         2.96449737626963      -4.06334295378573       0.43494338839546
H         4.12123782611577      -3.35472366204632       1.59068103878258
H         4.70022405233072      -4.01881154577513       0.04626518110242
N         5.88261473895803       3.27178184461018      -1.49945228255555
S         5.71496103687553       2.88954115095321       0.04286395673068
S         4.80198756180761       2.92931155900843      -2.63927376870548
C         6.46404791579606       1.14579845048878       0.14913854660709
C         3.78267601215773       4.51593305450677      -2.72642917182985
O         6.61017276561002       3.70666288771571       0.84231242810514
O         4.34016608874953       2.67543436697970       0.51893472887078
O         3.80781409220629       1.90272437102469      -2.30662689906175
O         5.47230128754739       2.88014365297747      -3.92640405272051
F         6.00074285908536       0.52399198837298       1.27611083524728
F         7.80757914954713       1.18912158378326       0.21273741248564
F         6.10444494585813       0.38212900314416      -0.91376434453540
F         2.81738659302969       4.37181143164129      -3.67536432392757
F         4.54175700412286       5.58186502159898      -3.04213612346559
F         3.15790148625954       4.77023421702556      -1.53992421964693
