23
C7H9F3N2O2 optimized with ADF in AMS.
N         0.32288327396039       0.82061977906618      -0.20511215353731
N        -1.63699762894961       0.52142996392559       0.68436180529335
C        -0.84588629093144       0.17376678158751      -0.33702659737700
C         0.24187939543302       1.65779222820331       0.89475747490151
C        -0.98306449594579       1.46182812728438       1.45569587065940
C         1.33071998198625       0.87661914187235      -1.25735560555526
C        -3.02567493800920       0.10171040857908       0.82001128742690
H        -1.09891703245057      -0.51965217400043      -1.12499728244650
H         1.04966383192647       2.32524713258943       1.16567794696421
H        -1.46017285329327       1.93168657304998       2.30569346552683
H         1.54440044980921      -0.14044997767168      -1.60787712322152
H         0.93072693192347       1.48930589960102      -2.07787451418498
H         2.24524905189848       1.31754182442111      -0.84528156368666
H        -3.56228405422529       0.87175004580439       1.38307120661997
H        -3.46318123992610       0.06638575884002      -0.18507256430368
H        -3.07791555277684      -0.86970604884527       1.33116945744430
C        -2.10992736934031       2.50748399121187      -1.68020870734212
O        -1.64707893474970       1.47673088073272      -2.25501420506335
O        -2.91538264464399       2.62137246299384      -0.73691135038935
C        -1.51820726150135       3.83523859827124      -2.26803263909781
F        -1.93260465009561       4.95751490028118      -1.62173498696061
F        -1.82885204339270       3.99353029627558      -3.59024324826118
F        -0.13347691830554       3.82880868722661      -2.18582466190916
