38
C8H20F2N2O4S2 optimized with DFTB in AMS.
N         0.49326376537829      -0.23399070276562       0.19129779588979
C        -0.78534841292464      -0.09031051597241       0.97026525045022
C         0.33951210828622       0.28090019773506      -1.22074150490680
C         0.85924467898251      -1.69624528039609       0.12962149593065
C         1.56056794293418       0.57976113897404       0.88180003905869
C        -2.00377164754631      -0.76199575639321       0.35371561312818
C        -0.21199766788213       1.69216527719388      -1.33727873450225
C         2.21006241420613      -2.00200845495203      -0.49598283910630
C         1.98722668805122       0.07380754174505       2.24971160690542
H        -0.60328501607394      -0.51489901624819       1.95977340421791
H        -0.97060299978420       0.97965591404218       1.08523485734935
H         1.33238195722419       0.24110750043334      -1.67303194246139
H        -0.30786056572454      -0.42179753608101      -1.75085262782009
H         0.82403431896297      -2.07679251573591       1.15347728360151
H         0.07333002354686      -2.18920977434959      -0.44698051883441
H         2.42577747152603       0.60750182064014       0.22163842776026
H         1.17213005523540       1.59548269555660       0.97032224891792
H        -2.85633462162822      -0.54341200056971       0.99678399906889
H        -2.22278799676926      -0.37924105373275      -0.64076646916126
H        -1.88835137493190      -1.84300494438671       0.30065360536712
H        -0.19681863193488       1.95119445009856      -2.39535140712292
H        -1.23668236019898       1.76847460880900      -0.97686864452150
H         0.41176324783168       2.41332263391490      -0.81380047165354
H         2.32122920402336      -3.08576171158463      -0.51791156966379
H         2.28334120313213      -1.63176022019955      -1.51620753217569
H         3.03027174797974      -1.58639664059966       0.08287903357107
H         2.71839243983422       0.78519906651435       2.63325006870787
H         1.15829153813062       0.01825917255314       2.95394435298638
H         2.46896759838128      -0.90017853131700       2.19076555384226
N         3.58718012618798       0.51037027530555      -2.32957523470887
S         3.16512297362348       2.04168672491400      -2.24653734052310
S         4.88826441077833       0.05182181693988      -1.53921299252238
F         4.40213856854765       2.88833994200454      -2.80930745396639
F         4.44931634772210       0.20155684440024       0.05070701631616
O         2.11002310744415       2.23537194935847      -3.19299964361154
O         2.95273341425227       2.54191901206503      -0.91509688163887
O         6.04064019871871       0.87565417133965      -1.64974566565620
O         5.00100701087732      -1.36075617335355      -1.70308268071235
