33
C9H17BF4N2 optimized with ForceField in AMS.
N        -0.02736170135659      -1.33498078919591       0.33517093605826
N        -2.04727970880724      -0.41133918734171       0.23022573773513
C         1.32723547699679      -1.64546922074938       0.78954635489045
C         2.37172314746162      -0.86968568926599      -0.02416658949987
C         2.20825966325492       0.64846684318872       0.13968092436764
C        -0.93875511084307      -0.57816111549999       0.97724707305639
C        -0.58069649762787      -1.66463341988980      -0.84986070947955
C        -1.83358385651567      -1.09020034153932      -0.91561766012162
C        -3.20423354574262       0.41887717806225       0.55594665469285
C         3.30601546264706       1.40688292513361      -0.59828989388969
C        -3.16354147667576       1.71732850139839      -0.24169403653039
H         1.43705662301354      -1.39178080757066       1.86708733436473
H         1.50871734992803      -2.73665149220717       0.68215156950454
H         2.28573354458047      -1.14325538811671      -1.09846819265340
H         3.38295726542775      -1.17054959009576       0.32661706294374
H         1.22533708854663       0.96846168562731      -0.26803822877916
H         2.24669211823389       0.91787681380251       1.21726876435269
H        -0.77922561703475      -0.11893697251251       1.94505666766174
H        -0.09974676720274      -2.25527908267070      -1.61878433386872
H        -4.13944962093192      -0.13635683495626       0.32823529865238
H        -3.20331427127550       0.66372433213602       1.64067819690074
H        -2.52560527487208      -1.14367556034429      -1.74615972457194
H         3.27342478129418       1.17054416194011      -1.68177090740769
H         4.30333175066804       1.13656813983791      -0.19183543708078
H         3.15326171395656       2.49921722178270      -0.47005408038242
H        -2.23531670669495       2.27945353433718      -0.00419425563406
H        -4.03969724875967       2.34626993228734       0.02102519689697
H        -3.18982894750444       1.50258385417035      -1.33070698308130
B         3.89014824007548      -1.07107887304295      -4.57336213427529
F         2.80943836198833      -1.85792574230463      -4.09340573735422
F         5.11364156396224      -1.59164950098295      -4.07407640327111
F         3.73181352771956       0.26954272119758      -4.13422954874499
F         3.90620380608978      -1.10316759691530      -5.99319220595204
