51
C13H24F6N2O4S2 optimized with ForceField in AMS.
N         2.00978424347447       0.44721158345798       0.09833786164056
C         2.26099364777109      -0.85286891450261       0.78019038739432
C         3.11656057693970       0.60114287260559      -0.89438606447175
C         0.69957299761652       0.44714814716781      -0.62213894319006
C         3.68461147314984      -1.26962490355004       0.47171135365901
C         3.93911915919749      -0.67605372106550      -0.88757773079483
C         2.06861440051781       1.56337039995710       1.07754018827294
C        -0.53933439558676       0.23078838245642       0.27886734531428
C        -1.80310847087164       0.10653794469209      -0.57997232065242
C        -3.05109242252375      -0.09913336065816       0.28451360633781
C        -4.30748565798339      -0.20665719133486      -0.58775427273989
C        -5.55878896245122      -0.38826615477800       0.26612756933460
H         1.59761520112707      -1.65834687049217       0.38952334122741
H         2.10317065508332      -0.80627764734047       1.88235165748997
H         3.79832552229412       1.44768447469573      -0.64476148026122
H         2.75672176983266       0.80149801087374      -1.93047248102892
H         0.70595910188093      -0.34918128621352      -1.40298515423724
H         0.56640852575065       1.41430880616483      -1.16020399166300
H         3.79825759693771      -2.37583693615250       0.46535355647163
H         4.38069648111238      -0.82414210049637       1.21644136633754
H         5.01989935480134      -0.47493799892109      -1.05236576418516
H         3.56378469203118      -1.36806637678566      -1.67454669508856
H         1.33479353373477       1.42872570544270       1.89995771366350
H         3.07179440897907       1.62027571965122       1.55699965080917
H         1.86606318030877       2.53825619212615       0.58003483345591
H        -0.42899323244971      -0.69080072567780       0.88785976115999
H        -0.66893834090704       1.09469888112457       0.96359392376886
H        -1.69250588597422      -0.75583950831359      -1.27437948449359
H        -1.92409077774778       1.03515190926467      -1.17957299220916
H        -3.15949078123156       0.76004759394284       0.98257119395510
H        -2.93561305975848      -1.03071222475934       0.88133556577992
H        -4.42050973553692       0.71588140893749      -1.19844051366225
H        -4.21200258055747      -1.07440854094191      -1.27666658987590
H        -5.69047571220236       0.47944005431452       0.94709143836116
H        -6.45045648266612      -0.46072285376740      -0.39163779138686
H        -5.48433223143943      -1.31929275806664       0.86731680255360
N         0.40531994402327       1.97201383675209      -5.51888924387407
S         1.62382713932346       1.37879235978606      -6.44208455420373
S        -1.17240628708579       1.88426947573921      -5.95839955924648
C         2.22667419965860       2.66848703026528      -7.51252138217859
C        -1.92505993071884       0.49430589422787      -5.14043895974085
O         2.74552695746907       0.92649623429309      -5.55011334509509
O         1.14487640708178       0.22004654782195      -7.27195757771783
O        -1.30562327310349       1.72418785842801      -7.44745429195435
O        -1.87706395704894       3.13842074189539      -5.52398412176843
F         3.26711908923282       2.18601918503318      -8.28337864674561
F         2.67693611696959       3.72816033357899      -6.74839526216648
F         1.20732445917500       3.10090203436879      -8.33850878940664
F        -3.25375070287760       0.39862461322049      -5.50764722026654
F        -1.84032885083285       0.66662548892431      -3.77353808003923
F        -1.26506165481913      -0.66556068029251      -5.49694003944255
