44
C12H26BF4N optimized with DFTB in AMS.
N        -0.87546356110805       0.23425889215069      -0.28512117398763
C        -1.65863525587409      -0.41019179890762      -1.40427326502837
C        -1.83073451577408       0.66694817031581       0.78623495202915
C         0.14444210167088      -0.72428246881185       0.29317843414616
C        -0.22376111472173       1.45257945036105      -0.87311028893782
C        -2.57375002122809      -1.53530263496561      -0.94530341782264
C        -2.70022861262142      -0.47546207907948       1.30004994148658
C        -3.51855770066179      -1.07840757938988       0.16025586791550
C         1.45976077818003      -0.83623361256230      -0.47601648821889
C         0.53275869054665       2.32404406594208       0.12997070469437
C         2.25249099856227      -2.03279011869210       0.06662012835086
C         1.39993715754145       3.33254822721345      -0.62371968385704
C         3.57627246545471      -2.18238468632103      -0.67859237018527
H        -0.93814051584477      -0.78591687365494      -2.13173149487855
H        -2.25359793757341       0.38479634605981      -1.86311436714670
H        -2.46246159987990       1.44960179730139       0.35492731856044
H        -1.24826545329427       1.09437466131407       1.60472630915676
H        -0.32866452938990      -1.70637055634861       0.31316200973062
H         0.33875382348400      -0.40591778152903       1.32096522589925
H        -1.01648290687337       2.04431087446886      -1.33869134220152
H         0.44396544471896       1.10294753936043      -1.66277302187439
H        -1.98818310186457      -2.39378240829699      -0.61231517579939
H        -3.13493490206015      -1.85540481533419      -1.82601309179054
H        -3.36068745644602      -0.06396054565397       2.06840361402264
H        -2.07944465564975      -1.24405715183667       1.76779222952460
H        -4.21898876134240      -0.32872101437146      -0.22354492044936
H        -4.09663005419482      -1.92771520592471       0.53075665564550
H         2.05812843930567       0.07208947694346      -0.36296716932342
H         1.26703955660379      -1.00043437160612      -1.53683517508464
H        -0.17403291660136       2.86465855325862       0.76593532735432
H         1.16853358294445       1.71473059334524       0.77565569949235
H         1.65829507330329      -2.94048149869260      -0.06834123690911
H         2.43963930262259      -1.89930012276467       1.13853089003728
H         1.91219006370771       3.97997063023071       0.08706768242842
H         2.14705464344763       2.81722971222181      -1.22756742853327
H         0.78617950965723       3.95077149474659      -1.27944484452209
H         4.17971245807634      -1.27780242635288      -0.58275410012507
H         3.39272840941146      -2.36950869983129      -1.73666820633268
H         4.13905740711669      -3.02123891437427      -0.26895091080790
B        -0.19618460492595      -2.86971980612996      -2.94389208891755
F        -1.55649057776136      -2.76980550414244      -3.25447475860668
F         0.41632954137937      -1.62250024610376      -3.26524916719952
F         0.42739761489565      -3.90163831451001      -3.58294330388896
F        -0.08878739883957      -3.01163264824564      -1.52230309394583
