34
C10H18F3NO2 optimized with DFTB in AMS.
N        -0.66228396550731       0.53044887292429      -0.08168547052499
C        -1.80189775004697       1.22872949103019      -0.77006583063156
C        -1.17294562539409      -0.85527372243167       0.22304466045973
C        -3.04911297580259       0.67471917323111      -0.10344278893444
C        -2.70037164014821      -0.79628993649725       0.12674408347519
C         0.52135888387344       0.50372491299393      -1.00309745935135
C        -0.33355515561713       1.24764134217884       1.17537704451522
C         1.75353708279821      -0.17459307861665      -0.41212084476100
C         2.79142653788466      -0.37855055804756      -1.51636092374141
H        -1.77475630015553       0.93546567100731      -1.82075739551075
H        -1.67715676255259       2.30723564396055      -0.67375012184705
H        -0.81808547100509      -1.15274865194227       1.21091540611873
H        -0.77275413601576      -1.53390831119380      -0.53029065662376
H        -3.91322054245700       0.78711452855463      -0.75902854058881
H        -3.25970347404689       1.18646579903103       0.83984585488956
H        -3.17083324328359      -1.18835943047047       1.02963021498219
H        -3.01873814523751      -1.39183081510302      -0.73145818989061
H         0.74080362982228       1.53984801231121      -1.27303250077281
H         0.19306181848528      -0.03075140791475      -1.89845889315492
H         0.03665982812377       2.24189479942175       0.92985972504597
H        -1.23072308670584       1.32721762893547       1.78558749175032
H         0.42737242452498       0.69491341441837       1.72159286700582
H         2.18857273675183       0.43662143522239       0.38468012249373
H         1.48263259408631      -1.14521745976536       0.01229814192622
H         3.68121578798693      -0.85196915867328      -1.10286722892647
H         2.38823801585336      -1.01611532835971      -2.30286395423987
H         3.07543168529238       0.57852180818935      -1.95436639239229
C        -1.60163247882117      -1.14646471889878      -3.80481192741071
O        -1.48779699642390      -1.12846131717850      -2.56774119996971
O        -1.82273098566459      -2.01441957935744      -4.61361466103433
C        -1.39714745534298       0.36541956344636      -4.40097023489840
F        -1.34961777435505       0.49062904715628      -5.72609350856532
F        -0.24143149783332       0.90624473474291      -3.91230115932562
F        -2.38088209256633       1.19145255569453      -3.95639577856652
