45
C11H20F6N2O4S2 optimized with DFTB in AMS.
N        -0.25725662507517       0.26754316952655      -0.13340833625191
C        -1.42041872595175       1.03305006853226      -0.70386910820228
C        -0.33541683868386      -1.17411548105627      -0.54436478016544
C         0.98541023127878       0.91011120992317      -0.70266668518110
C        -2.77138890388850       0.41729531996175      -0.37311788606767
C        -1.68283497235975      -1.81336812285685      -0.23302161313552
C        -2.81975629535035      -1.02333077409537      -0.87552986964046
C        -0.23278645219242       0.38981336723558       1.34654665831897
C         2.29447321841913       0.16737957803342      -0.45552638955761
C         3.42498548478859       0.96218983999951      -1.11083721788131
H        -1.29007518304480       1.03627416380601      -1.78754683579821
H        -1.34680799248604       2.05747899753110      -0.33296985330740
H         0.46310961371591      -1.70726401583450      -0.02556911748344
H        -0.15022098901747      -1.20876351471476      -1.61791716289406
H         1.03211017972170       1.91829081819393      -0.28274536381209
H         0.83284265602541       0.99631855233659      -1.77925669049048
H        -3.53068878814044       1.01644943031161      -0.88180902863798
H        -2.97599450817139       0.45804412409090       0.70112046972377
H        -1.83809257762181      -1.89038722580882       0.84770421486671
H        -1.65712107042746      -2.82780955330407      -0.63895403814760
H        -3.77994284418143      -1.47835133216644      -0.62310410440176
H        -2.70341403329652      -1.03333824347909      -1.96351032853134
H         0.63255818843027      -0.14428574097529       1.73306530955375
H        -0.16620827784625       1.44352719084377       1.61162574219495
H        -1.13979180982906      -0.03653163166423       1.76708469685010
H         2.48947007593143       0.05073018839205       0.61475817441546
H         2.25705569477281      -0.82263774682290      -0.91504263489246
H         3.23713426279235       1.06136884602860      -2.18036238362721
H         3.50236481176100       1.95815361208197      -0.67359931521747
H         4.37035970978055       0.44081013592663      -0.96717411731888
N         1.33960252766067       1.17216708967501      -3.97805619966689
S         0.67379286065736       2.40627301119573      -4.77617263956496
S         0.54202549849278      -0.21489955179628      -3.98947853780060
C        -0.50740203789451       3.22104517474035      -3.56396283712317
C         0.47830949257915      -0.94229136809320      -5.72473643823222
O         1.69596928636703       3.39921902315387      -4.93898942050302
O        -0.14221910513848       2.03381091866135      -5.89962834971111
O        -0.85210281219269      -0.12540924043376      -3.56650640964943
O         1.36141271180265      -1.14457559959375      -3.23480971854667
F        -0.72232592188712       4.47647858901980      -3.90431725705855
F         0.03596215043570       3.20811057663087      -2.33451749756921
F        -1.67327726311563       2.59437627306868      -3.48245758660386
F         0.64156620266510      -2.25204607338078      -5.61833241791957
F         1.45028638534502      -0.44644889650675      -6.46337824418198
F        -0.68476382323053      -0.70228290931793      -6.28901536374880
