55
C15H20F18NP optimized with ADF in AMS.
N         1.89739229998245      -0.38803464265937       0.10607885803015
C         2.83988794492772      -0.10376741085450      -1.05644992202638
C         0.64153193847141      -1.04488160535250      -0.42857218482455
C         2.20179318573498       0.71537645464195      -2.16107293185918
C        -0.02798416560074      -0.25262741810676      -1.54322332126368
C         1.52754464191511       0.88670366575810       0.84506190612186
C         2.63114007917443      -1.35662486449268       1.02491338177821
C         0.94013269415316       0.03515589098751      -2.69084294113284
C         2.68048934644762       1.58861768111146       1.53273537868924
C         1.89466533153516      -1.74603221552663       2.28701315060238
H         3.14057984094495      -1.09259097416558      -1.43340416971771
H         3.74039064934374       0.35686741460310      -0.63810034747078
H        -0.03520007834993      -1.19319761408519       0.42437947263499
H         0.96064983617840      -2.03301835297463      -0.79764299596119
H         2.96179241984160       0.81883658623607      -2.95281166954999
H         1.98023131548762       1.74137073245939      -1.81935211388875
H        -0.44967517473610       0.68756618255987      -1.14894228706954
H        -0.88803353249638      -0.84892757016395      -1.89194880687535
H         1.06089957015021       1.54513553889681       0.10311366234688
H         0.74852658275295       0.59730195254522       1.56628917120895
H         2.85128740902330      -2.23649381416785       0.40311644859535
H         3.59310719986525      -0.88454246462969       1.25109724477321
H         0.45036444830436       0.65662053924645      -3.45704705588483
H         1.22152491892870      -0.91638110426341      -3.17886368761741
H         2.28446594632565       2.51477483520279       1.97717900452703
H         3.12523422058313       0.99361574272080       2.34006668520965
H         3.48532274175110       1.86863141791317       0.84056449312436
H         2.55445980554003      -2.43379294649657       2.83770767529019
H         1.70251771422405      -0.89055145023295       2.94975325046966
H         0.95163142060205      -2.27835267651852       2.09585708495301
P         7.03218487167185      -0.41244589567142       0.49928848086193
F         7.56592645868684       1.14381457572659       0.72234530929338
F         5.42567059955187       0.14307300922008       0.68416145081541
F         8.55779207228599      -1.02455739218784       0.31190406220461
C         6.98334707426965      -0.00441611612209      -1.44585287043915
C         7.24016537834186      -0.58904187967208       2.46939691036027
C         6.19733351872759      -2.23028235593796       0.24421197740106
C         7.85543062064760       1.18798600090917      -1.96257392170871
C         6.18477106962095       0.08202195893974       3.39611947592946
C         7.05263095499079      -3.51648381938218       0.04157248496753
F         5.70302471729242       0.30691241653885      -1.90137737114733
F         7.40170673921706      -1.09047031425393      -2.17433741540544
F         8.43666855878204      -0.00673796474483       2.81694598931284
F         7.31475810696739      -1.89428915136188       2.90352479536153
F         5.34429815619353      -2.19572173788774      -0.85469942139000
F         5.37720295433280      -2.52131053895439       1.32303442850323
F         7.85504892867588       1.16420506976916      -3.33052234323773
F         9.13465720053295       1.10493230351502      -1.55105680720700
F         7.34259550920691       2.38637580066037      -1.59016912967463
F         5.98402678923985       1.38455429573483       3.09965995103340
F         4.97621887586062      -0.55778791951585       3.32977757194628
F         6.59509821624254       0.00899218334411       4.69090552799940
F         6.20376547054707      -4.58739036890576      -0.08002664120594
F         7.86028277749631      -3.75394155521638       1.09300823504319
F         7.79781535701161      -3.46095384663550      -1.07893484603053
