60
C16H34F2N2O4S2 optimized with DFTB in AMS.
N         1.20008114953838       0.98144938324185      -0.31734477736525
C         0.75140621952117       2.12951757012847      -1.19055993427084
C         2.33888624855686       1.52124468022246       0.52975539086128
C         0.09268561012921       0.52394292534540       0.57958084918758
C         1.70135033078222      -0.13113959132434      -1.19698061240885
C         1.89354983467302       3.13502028038723      -1.15866926546284
C         2.39514472764112       3.01856224240673       0.27483153710640
C        -1.12477556861659      -0.02800943588577      -0.15981346551050
C         2.22585543758227      -1.33972712988157      -0.42241935649777
C        -2.24887206960038      -0.31260324641632       0.84359929789468
C         3.24092328990571      -2.10124005999322      -1.28407235019433
C        -3.47878550607093      -0.89430284871912       0.13998651760258
C         3.87708390540002      -3.24607858819362      -0.49139134096556
C        -4.60452313871168      -1.17974777315522       1.13913445702561
C         4.92383230705194      -3.98164753303365      -1.33292821268217
C        -5.83238606291724      -1.76124127782565       0.44097110333348
C         5.58781544149563      -5.10334603295699      -0.53644110948971
H         0.51936132087967       1.75908144974458      -2.18872559709209
H        -0.14922944953080       2.56185268283849      -0.74867792699784
H         2.17381531818770       1.26769806467552       1.57572686632921
H         3.25768293857036       1.05046958902752       0.18783985528703
H         0.50529444789140      -0.24205381373881       1.23994470284714
H        -0.19482934344930       1.38637554987179       1.18716247542917
H         0.88625709416212      -0.42281075857859      -1.86279958012417
H         2.49887616779414       0.30456349322237      -1.80036866729945
H         2.68057641241390       2.84926930122820      -1.85945488343127
H         1.53904401504293       4.13635382077010      -1.40378720065198
H         1.74081770888758       3.56238319927465       0.96155823638695
H         3.41778512095108       3.37932192840228       0.38724994063262
H        -1.47685001323736       0.68945867377222      -0.90596030190261
H        -0.86488404115053      -0.95510825531854      -0.67716682858568
H         2.72387264295157      -1.01827545598147       0.49447356692336
H         1.39835529248088      -1.99970429998848      -0.14394976712859
H        -1.88974680460061      -1.01900755662313       1.59933281069275
H        -2.52309819596311       0.61565809421392       1.35601655326670
H         4.02383038902528      -1.40657329536654      -1.60245630514657
H         2.74594049727669      -2.49101946919453      -2.17994352174098
H        -3.83185192564429      -0.18709128226657      -0.61833228902770
H        -3.19938369400484      -1.82130301010638      -0.37210036987830
H         4.35432788762462      -2.83637271811833       0.40455866782519
H         3.10045089148930      -3.94881635342380      -0.16861414460365
H        -4.88070636205515      -0.25129505226461       1.65019842276490
H        -4.24725627520905      -1.88522657174740       1.89677186372799
H         4.44731565348010      -4.40016891244166      -2.22641936864014
H         5.68739971123241      -3.27004246795277      -1.66345351973871
H        -6.21507790957900      -1.06289583120655      -0.30451575695410
H        -6.61836694640275      -1.95596648539179       1.17061900521442
H        -5.58081539273955      -2.69819928382867      -0.05765934911645
H         4.84528161304188      -5.83250297329300      -0.20794273646157
H         6.32641307455567      -5.61421779164157      -1.15461794062186
H         6.09076064202431      -4.69985991832269       0.34327420082066
N         6.63917461252479       1.23441713200056      -0.48557872263711
S         5.96999191347792       0.88896615750529       0.90947824875920
S         5.69432462043450       1.83064988704858      -1.60486889243175
F         4.96984597110843      -0.38175517063458       0.56658099310052
F         5.24478156844607       3.30001290106360      -1.04453652026922
O         6.95841641992893       0.32888288478617       1.76192164399678
O         5.05715662539471       1.85924600698824       1.44366592587070
O         4.42067723492639       1.17238390626947      -1.78233034023195
O         6.47103993610028       2.10906350068030      -2.76185809572538
