38
C10H19F6N2P optimized with ForceField in AMS.
N         0.36872029618968      -1.61530427655147       0.32617786532547
N        -1.75523693203803      -0.96009968564043       0.27268241216552
C         1.76874388376948      -1.71895661899313       0.73165806686640
C         2.64510935834922      -0.73910553617332      -0.06114615725826
C        -2.99234488136925      -0.26330515901618       0.61882711524409
C        -0.61496576367104      -0.97723531796065       0.98960361099065
C         2.23745253359800       0.72016358825282       0.18977451258128
C        -0.16907268089597      -2.02307871212088      -0.84095378570156
C        -1.48813899861425      -1.61949107244620      -0.87277691993444
C        -3.21299852897146       0.95506292447523      -0.28750499756393
C         3.17919166144193       1.69210366346164      -0.51151511244531
C        -2.07719305426540       1.97198754654989      -0.17372518354957
H         1.86703963493077      -1.50685745391292       1.81925158821033
H         2.12387803852646      -2.75813563035218       0.56046634669586
H         2.56893039247647      -0.96828060507837      -1.14668734785265
H         3.70321772659698      -0.88588065945467       0.24705966958265
H        -2.95948372260184       0.06868517119521       1.68017440465956
H        -3.84836778943388      -0.96319631596986       0.51209969783323
H        -0.48600896876092      -0.48114916701315       1.94421717334426
H         1.20963396567975       0.89336231781938      -0.19262642023051
H         2.24714128475766       0.93265490753789       1.28126827742888
H         0.36596817378089      -2.54493123527777      -1.62373698903834
H        -2.18833752749539      -1.76464768566512      -1.68507754766061
H        -3.30683270324076       0.62696550082474      -1.34530865337685
H        -4.16543125706233       1.44802327466546       0.00219970608177
H         3.19228278172639       1.49860448651230      -1.60534918651614
H         4.20672153490267       1.58970820607138      -0.10594933649999
H         2.83394423074248       2.73322063595180      -0.33860790363842
H        -1.13601644066023       1.54755136267580      -0.58078535848271
H        -1.91948200558326       2.26384130325154       0.88678520710909
H        -2.32962861181520       2.88089699295835      -0.75992362634037
P         7.63331473925270       1.17204604252011      -1.18572798596054
F         7.31364184145354      -0.50228013449814      -1.39829476193720
F         6.21629485359520       1.50846098719803      -2.09659764578291
F         6.76919084442365       1.13407728866120       0.29797810826633
F         7.85452093729961       2.86541000722999      -0.99989467776333
F         9.06832282310297       0.83857282842250      -0.30253397106206
F         8.60064987148270       1.18384402588920      -2.60516779908970
