54
C14H26F6N2O4S2 optimized with ADF in AMS.
N        -2.83179700659527      -1.31948707820456      -0.49206108603985
C        -3.45559119780150      -0.03093293929203      -1.00865055932986
C        -3.89616426440946      -2.17353953960989       0.18812067101412
C        -1.79471435870564      -0.98967008826704       0.57830693312069
C        -4.68658406060608      -0.26240531397896      -1.86754437371811
C        -5.11140458803860      -2.42127803206486      -0.68551036554646
C        -5.73044086201610      -1.09740611590622      -1.13080123368353
C        -2.19404361519687      -2.07365344646247      -1.61050732473962
C        -0.74000851616282       0.02235422861655       0.17533385754311
C         0.24114840177711       0.22454196968175       1.33224628379340
C         1.28384852305487       1.29514969272611       1.02241808590124
C         2.25862507026005       1.52214133483680       2.17489990223061
C         3.29680100970342       2.59701657199920       1.86658354743324
H        -2.66894433518477       0.49589751033245      -1.56509130603332
H        -3.69897296170284       0.56384356970862      -0.11708785570313
H        -4.17744283391146      -1.61573610618211       1.09238862317460
H        -3.39420491568813      -3.10196469918583       0.49886510516946
H        -2.37137021438646      -0.61601122303354       1.43937597224854
H        -1.34231043519344      -1.95614887164741       0.85537636138750
H        -5.08645956941806       0.73575766696089      -2.11173557793681
H        -4.41608220085261      -0.73344789666792      -2.82947121555095
H        -4.86118426620502      -3.05039303262300      -1.55861697689143
H        -5.82292433836773      -3.00252879951741      -0.07691060285924
H        -6.07957284668533      -0.53876258038334      -0.24531061061037
H        -6.60580366384153      -1.27575215365389      -1.77488928515784
H        -1.40781668458787      -1.45324012681231      -2.05586943127677
H        -1.76206994038337      -2.99883483099565      -1.20793137313598
H        -2.94543580655565      -2.31374023483484      -2.36871255355897
H        -0.17984081443193      -0.29609077445759      -0.72155958005308
H        -1.21472535845520       0.99297772617541      -0.03723000675765
H        -0.32929369561468       0.51719542914206       2.23132944132191
H         0.74777811715374      -0.73002479434831       1.56694146695481
H         0.76731311069036       2.24512532425157       0.78913080404389
H         1.84969729992986       1.01273972811800       0.11375393943096
H         2.76720308533271       0.56973380390592       2.41285042736946
H         1.68678051023879       1.80403028638499       3.07710950914872
H         3.89721614031530       2.32399325894752       0.98352324795536
H         2.81067573286232       3.56337342918861       1.65557625967940
H         3.98578415306920       2.74326260136564       2.71193311555511
N        -4.16054710356232      -0.01775281385584       2.78403439321365
S        -4.46986436104343       1.49830410146907       2.34551782832011
S        -4.91258643575278      -0.93653686839621       3.87688131794941
C        -4.56586587690279       2.60385771636869       3.88402540446036
C        -6.68768403538312      -1.21664557615230       3.27853986497494
O        -3.26380845253757       1.95771996808877       1.64637134181741
O        -5.76317430344560       1.66751631437021       1.68571234833359
O        -5.07943222267930      -0.31543715842123       5.18083899809084
O        -4.31624904953762      -2.26242497301838       3.74126384303635
F        -4.52400676501684       3.89392233719359       3.46864391457073
F        -3.51799433660598       2.37713873665125       4.70309094925589
F        -5.71464891475691       2.40743364501986       4.55526821955694
F        -7.24788596477444      -2.19751926045328       4.02301921397444
F        -6.69963226799913      -1.62452415104594       1.97443466587148
F        -7.44350276639146      -0.10810342213118       3.38483340138067
