37
C11H24ClN optimized with ADF in AMS.
N        -0.73993011331922      -0.31636714081224       0.19059160929140
C        -1.06708197319811      -1.45320393746192      -0.77117736780102
C        -1.85251582857612      -0.40196059887297       1.24214715730065
C         0.60217225158008      -0.54495805020264       0.85374981324683
C        -2.58274379641326      -1.45798061147714      -0.85666011138434
C        -3.02661002438439      -1.14012286500891       0.58440700605816
C        -0.80999846987084       1.00027845083157      -0.54256562193405
C         1.77415297571909      -0.54782481421080      -0.10814814673335
C        -0.37347082017601       2.21200104086726       0.26644486949194
C         3.06229911338841      -0.88453403312972       0.64672445462844
C        -0.69610757394189       3.49496651406805      -0.49751958560131
C         4.27746259984704      -0.91189345988722      -0.27501286297603
H        -0.54446717682534      -1.27821523307661      -1.72086137145897
H        -0.72557507968748      -2.37089476354746      -0.24791561516882
H        -1.44611533750570      -1.02243004006042       2.05790187791490
H        -2.08180971496567       0.61858898476744       1.57330767894010
H         0.48324684925660      -1.53436850495619       1.35229700127272
H         0.71027557912834       0.23430122064665       1.62336462388479
H        -2.96023107017072      -0.71591855934146      -1.57926563262705
H        -2.93257905134626      -2.45071282741792      -1.17723126117735
H        -3.15621057198712      -2.08463941090700       1.13667217064445
H        -3.95850080282886      -0.55758906677401       0.61300015048679
H        -0.18336041703560       0.89888767245534      -1.44202204980050
H        -1.85440013678434       1.11459351688722      -0.87015106554581
H         1.61641067654496      -1.31200231420353      -0.88843804340568
H         1.89674899822134       0.42594819339654      -0.61793281621693
H        -0.88145745534428       2.22853878263127       1.24454806435018
H         0.70868655246377       2.16201542167442       0.46769610994580
H         3.21917531270857      -0.14412663414059       1.45177085226643
H         2.93567457214411      -1.86423519768460       1.13923805773195
H        -0.19003182459065       3.51281733872649      -1.47566672520808
H        -1.77941717274507       3.58759042813675      -0.67352472235213
H        -0.36770727897344       4.37815692268662       0.06885117441426
H         5.19399949544087      -1.15649945135650       0.28257275685642
H         4.15194704298406      -1.66857643270127      -1.06566959630317
H         4.42790337076911       0.06513634215487      -0.76260369645755
Cl       -0.74017533452597      -3.39819737089940       1.85231406982591
