61
C17H24F18NP optimized with DFTB in AMS.
N         1.25809180342767       0.48954008401542       0.27210356249901
C        -0.01563673103945      -0.25108811429509       0.00617268956501
C         0.89199167528642       1.41949055942390       1.38812072451485
C         2.31847805261590      -0.46657479492936       0.75853645824783
C        -0.66298900704320      -0.45630584735876       1.37473751464933
C        -0.04721904540068       0.61869333691452       2.28477489593165
C         1.67412019005583       1.25104031376869      -0.95394636020022
C         2.92846973271083      -1.35671598798743      -0.32070891699705
C         2.88530073669906       2.15675411985166      -0.74661216422826
C         3.74139099018904      -2.47025361217198       0.35591267028092
C         3.18430871837244       2.91193264462611      -2.03932284273583
C         4.51445817063533      -3.28768058718156      -0.67517342134417
H        -0.64182351390149       0.37704535790539      -0.63121685951729
H         0.20461236283541      -1.18223184763772      -0.51495281857457
H         1.79412263363255       1.75400809856298       1.89801261447915
H         0.37979350366186       2.27938253671650       0.95043764085833
H         1.84997953091689      -1.08004774774154       1.53113223257318
H         3.09735390363274       0.13343327507199       1.22666722199704
H        -1.74552693422891      -0.34332490127063       1.29590665263162
H        -0.45423140856353      -1.45638075355117       1.75899350899091
H         0.50240664629749       0.15989713572385       3.10874146361559
H        -0.81105322252099       1.27246297103083       2.70839969953767
H         1.87004389433981       0.51616657798546      -1.73773125974472
H         0.80947444523591       1.85078076232649      -1.25436661604433
H         2.15108002836092      -1.80180816223749      -0.94986336601777
H         3.59394449707674      -0.77003493437030      -0.95776057406680
H         2.68512764273513       2.87340858307618       0.05299313707003
H         3.75484508545155       1.56515945999634      -0.46272051478450
H         4.44620333044747      -2.02180231129522       1.06073484342852
H         3.06399964660368      -3.12126161051180       0.91971786430131
H         3.40213897118711       2.21500728153268      -2.84847799413338
H         2.33784058037178       3.53658629975500      -2.32866127804290
H         4.05524462822381       3.54676494629215      -1.88646186354483
H         5.05691115341218      -4.08861644908800      -0.17379195518162
H         3.83694193484880      -3.72763677710022      -1.40888641656025
H         5.23415071179015      -2.65535218678064      -1.19385180889395
P         6.66606147420935       0.97456906491315       0.78206150880039
F         6.00858424373705       2.39221623470095       0.13666761638103
F         5.08531953182160       0.29511445266139       0.71301635563438
F         8.19865474790681       1.62217640063568       0.86133632815258
C         6.99742354063602       0.42368327368835      -1.07245164259170
C         6.25091332967524       1.79040535490776       2.52613575258276
C         7.22647004616755      -0.78350168391674       1.53744374958658
C         7.14567659331999       1.53367817367692      -2.14910319544914
C         4.77575808039109       1.78642034099537       3.00955592732953
C         8.67645033934787      -1.06429088415588       2.01344470921832
F         6.01265138859340      -0.38333854334816      -1.53233393518494
F         8.13770246459005      -0.28578420967038      -1.10359072161992
F         6.60672875114683       3.08538438584773       2.47927814890146
F         6.97059950789126       1.22690804112712       3.51171042202632
F         6.93784358116213      -1.73644804018560       0.62406466939051
F         6.41693522117644      -1.02982339958962       2.59243041078055
F         7.66952073789881       1.02196777383798      -3.26526277085884
F         7.92235747788453       2.53122271160705      -1.75432879670671
F         5.94611158195860       2.03344123802758      -2.47156604293022
F         4.63854752436718       2.47300196039193       4.14137855285081
F         3.95868797985049       2.35607810652016       2.10427652485858
F         4.30271021747006       0.55727370528176       3.22852072103351
F         8.74678215432028      -2.27830454734649       2.56716687261166
F         9.07616831208546      -0.17943495349533       2.92020453293247
F         9.52977451823570      -1.03130053067984       0.99558377801050
