38
C12H22N2O2 optimized with ADF in AMS.
N         0.86530592883768      -1.72660586915917       1.02301776861526
N        -0.73358723973972      -1.10783235954217      -0.31522146701904
C         1.83321632825797      -1.69437011522448       2.12758296923585
C         2.97743060383969      -0.72582921289141       1.83388124699026
C        -1.81318121676195      -0.30884524824275      -0.90041184535867
C        -0.21451938652224      -0.93001120754137       0.91270849938206
C         2.56251726213133       0.74438124604712       1.84954841124553
C         1.07487370822488      -2.35437313650610      -0.18212500267281
C         0.05256147642007      -1.99574360750139      -1.01082793254922
C        -1.27189993374208       0.72681354959322      -1.88503327802348
C         3.65990174068720       1.64899364435624       1.29134944507534
C        -0.23862092289554       1.66263087071719      -1.26579529870006
H         1.28097246603532      -1.41997070724855       3.04092428428292
H         2.20358614476468      -2.72271286909532       2.25358674857723
H         3.37208147176566      -0.95537086016746       0.82889987811997
H         3.77013265950174      -0.91449581156402       2.57966060698635
H        -2.33878017264072       0.18264051237774      -0.06683134780656
H        -2.51633706955209      -1.00078946607880      -1.38887426722399
H        -0.60628422693697      -0.27809049118974       1.68113568411239
H         1.67970085596665       0.86722651237664       1.20144044802704
H         2.27856389439254       1.04733252363323       2.87599340176504
H         1.94765445975926      -2.95466639023814      -0.40030031893078
H        -0.06857232639536      -2.20336004357055      -2.06535224145281
H        -0.82631973562128       0.20504058673812      -2.74947206238894
H        -2.14649504038659       1.28543589065878      -2.26224240927864
H         3.82469817574657       1.38041654737186       0.23591285846647
H         4.60534870941034       1.53738154319624       1.84716750353735
H         3.35907558438179       2.70694332459936       1.33909738940612
H         0.70378821279580       1.12427349917091      -1.05862150481929
H        -0.62192104375252       2.11943140806591      -0.33661463650727
H        -0.00470045738677       2.47882515726649      -1.96592468474946
C         3.44981771578725       0.27646817157220      -3.21969034654788
C         2.68446106140616      -0.66464216835612      -2.27201578616570
O         2.36835989855111      -1.80878847962670      -2.70361666410121
O         2.44055021098580      -0.18393069050285      -1.11334199399801
H         4.42175952747931       0.53385643398780      -2.76956599650840
H         3.61441823430943      -0.17948544973696      -4.20557103886861
H         2.89541223349561       1.22161520185504      -3.33344792845434
