34
C10H22ClN optimized with ForceField in AMS.
N        -1.46293790667765       0.37437609807613      -0.05940274372211
C        -1.77280648504277      -0.89097965520500      -0.78791524364082
C        -2.54027885477207       0.52535035337444       0.96053116927562
C        -0.13720158831705       0.29729652421950       0.63010013223072
C        -2.96425004917545      -1.55027932738179      -0.11233723769865
C        -3.66548469382714      -0.42130602401105       0.59172840993719
C        -1.51094589448297       1.53408195255588      -0.98779326735894
C         1.08430331526309       0.31619361552224      -0.32011277745579
C         2.37420820721301      -0.03085685484095       0.43338502862906
C         3.59245844750628       0.05479228422929      -0.49377085809198
C         4.87961099470899      -0.28050280729945       0.25373191123948
H        -0.92582470969589      -1.61157851493603      -0.79477422582385
H        -2.04007157396199      -0.70533828505966      -1.85443413016331
H        -2.92805508839516       1.56764466048545       1.03900525944689
H        -2.19096316970205       0.24422853755292       1.98179668152817
H        -0.09547374520157      -0.62995444566069       1.24852187663190
H        -0.02800908221367       1.15376297487372       1.33532079534424
H        -2.60777205290110      -2.29229342577588       0.63684568178183
H        -3.63163739978573      -2.05407150164831      -0.84479652220732
H        -4.37020074358421       0.08039810004400      -0.10767354481499
H        -4.21797124543707      -0.77845341074112       1.48826316630831
H        -0.85032587646036       1.37619209074013      -1.86822422452052
H        -2.54121338881216       1.68811142176552      -1.38074351579186
H        -1.19376254655868       2.46830138447776      -0.47221192100833
H         0.94878756767366      -0.40457389367797      -1.15327245805305
H         1.19611067174402       1.33349826562699      -0.75352692485573
H         2.29606868506760      -1.06220538994426       0.84339144936106
H         2.50643472799395       0.67812227534198       1.28057557839879
H         3.67687924526312       1.08311875261194      -0.90832557460290
H         3.47173938983205      -0.65650647131250      -1.34004863305195
H         5.02354197556996       0.41538756479875       1.10768854295883
H         5.74544546312939      -0.18151039235216      -0.43431719620856
H         4.84407645221450      -1.32378125239068       0.63212358065437
Cl        4.49332787252512      -3.85210361275916       2.41036096694420
