64
C18H26F18NP optimized with ADF in AMS.
N        -1.84067577572643      -0.05946369580740       0.04460953908221
C        -2.11273181606707       1.36571655649053      -0.41876128371891
C        -2.81228990380977      -0.41079272890668       1.16230916317840
C        -0.44002177289922      -0.13421703234685       0.64567836594043
C        -3.56433232979396       1.60840674020930      -0.79243626335497
C        -4.26749064831768      -0.19133127426333       0.78953351756586
C        -4.50236309471130       1.25469857687009       0.35810439610292
C        -1.96413325801640      -1.02276939843483      -1.08695638231733
C         0.70804630271211       0.17469472793944      -0.30122025175033
C         1.95790430796467       0.53047227741617       0.51273809185948
C         3.10364979577835       1.02572176714185      -0.36485552555638
C         4.29453255809817       1.51598255819477       0.45639547013072
C         5.43191167721200       2.03967501277714      -0.41558053324368
H        -1.44291237071595       1.55800386176349      -1.26536844592857
H        -1.81846798537864       2.01648887262431       0.41590763107393
H        -2.53759806475934       0.23942596999040       2.00459716093216
H        -2.59962736960814      -1.45514840110198       1.43956462918405
H        -0.44769272528166       0.59256415158108       1.46777738306152
H        -0.34982750589400      -1.14666430773023       1.07244307184852
H        -3.63971176014735       2.68027598783993      -1.03999630735027
H        -3.83994864742274       1.05540203126888      -1.70788462478189
H        -4.58659467034124      -0.89390110108408      -0.00066352442027
H        -4.86419457341598      -0.43859089696174       1.68339604344749
H        -4.29979268780436       1.92891445916966       1.20795123159819
H        -5.55259115116091       1.40429895792886       0.06234027875660
H        -1.25019995879693      -0.73970682790730      -1.86886395566881
H        -1.73584673666769      -2.03083189391428      -0.71706274109902
H        -2.98143292629651      -0.99447030489685      -1.48896485177922
H         0.91843031489509      -0.67379420649075      -0.97508788277663
H         0.46728863964862       1.04769965173965      -0.92602795412309
H         1.69099891354497       1.32668483001756       1.22706053268069
H         2.28403962129925      -0.34227770048450       1.10825545098613
H         2.73541224288828       1.86130599821114      -0.98926626038765
H         3.42929675475405       0.22700544911560      -1.05891725755920
H         4.65996582874600       0.69344129979046       1.09863444809289
H         3.94683890944438       2.31516876565206       1.13512844884700
H         5.80921781106817       1.25352880950320      -1.08991440691541
H         5.08882530801822       2.88177902840410      -1.03803206998810
H         6.27626587084072       2.39582334702381       0.19378994719402
P        -0.76899513232433       4.01997162246047       2.76212718719683
F        -0.08945966013035       2.51482022964328       2.35294774793512
F        -1.85935088214799       3.81780842824956       1.48205220097201
F         0.29224547083266       4.24197506924138       4.01827916035347
C        -1.92456885584394       2.94821947303407       3.98638344765101
C         0.62477965680558       4.78178745361654       1.55830929815235
C        -1.71627051305916       5.74376448480803       3.09151608445969
C        -1.32627392192786       1.67457115913154       4.68759783901715
C         0.41978422707466       4.75302067555468       0.01561056666570
C        -1.29057616964009       6.69744837603389       4.25273957601353
F        -3.04647783866932       2.45412097786052       3.32169262141852
F        -2.37942429003688       3.70292594425296       5.03524589589165
F         1.79819516720295       4.07519873905215       1.76026990462782
F         0.91778887665402       6.08650261603230       1.86312226229430
F        -3.05697784749471       5.48092183056099       3.28809260546991
F        -1.65024814219458       6.51079166568293       1.94803283410150
F        -2.21819033639013       1.23252421541676       5.61982726995932
F        -0.15877408152099       1.91264393727300       5.30734476870689
F        -1.14447635181027       0.62953973066414       3.81992060504995
F         1.51884754163698       5.26414217276445      -0.60379490415852
F         0.26959361488887       3.47063894274452      -0.43864407166865
F        -0.64909508385298       5.46728809065674      -0.38998582258206
F        -2.11427095861572       7.78592562529863       4.24807785423597
F        -0.02376443914498       7.14002265295168       4.10160350965626
F        -1.39477372487122       6.11025131948212       5.46461724493677
