46
C14H30ClN optimized with DFTB in AMS.
N        -0.13799745647777       1.52181024261251       0.11572864037821
C         0.43302375848329       2.48819579346444       1.12446335112156
C        -0.83604966625539       2.40265540814099      -0.88170612657425
C         0.96276480321970       0.77516408701977      -0.57577046755291
C        -1.11804334219687       0.60897518787649       0.79239168124474
C         0.54534694204675       3.84703086523061       0.42942651732270
C         0.05295012540031       3.62846495178036      -1.00219843520728
C         1.66551638177928      -0.27230132110628       0.28755129097447
C        -1.80723726219119      -0.36707752010461      -0.15462273712561
C         2.90716147859610      -0.79132593672113      -0.44714074391409
C        -2.84641260576639      -1.17614353813561       0.63094267253784
C         3.62225168399015      -1.86774553064625       0.37563045468436
C        -3.57538349564022      -2.16888053636487      -0.27904387048800
C         4.86087126600288      -2.38874542353567      -0.35044149352970
C        -4.61617839997745      -2.97143120474951       0.49948774217847
H         1.38786250226042       2.10780685913013       1.48613794947464
H        -0.27508253023368       2.55371564126445       1.95217559458954
H        -1.79499166330533       2.68469986449121      -0.43596073676636
H        -0.98297321566510       1.86524848297054      -1.81787639742201
H         1.68755301390626       1.52077919171466      -0.91175791586995
H         0.53210614793184       0.29472894552089      -1.45780094330164
H        -1.86437961564323       1.26451346307609       1.25552353545202
H        -0.58159854049721       0.07499637468162       1.57978256141631
H         1.56729686918356       4.22868170755621       0.45219285797757
H        -0.11104766732041       4.55477025821075       0.94259884964951
H        -0.52090258892802       4.48091216602737      -1.36692434944430
H         0.88632563147728       3.45192640369214      -1.68828643401941
H         0.99415476186823      -1.11084738358381       0.48857123011083
H         1.96714929587166       0.15606605286178       1.24695182676652
H        -1.08539427230451      -1.05063562607221      -0.61261114480147
H        -2.31066371628061       0.18040888577123      -0.95591401698413
H         3.59304831660226       0.04112037293978      -0.63737818972897
H         2.60909045290783      -1.20725228590545      -1.41552295776930
H        -3.57073229062692      -0.49063633389852       1.08121323384849
H        -2.34798812214262      -1.71815797203325       1.44180176955478
H         2.93316473845796      -2.69762731813054       0.56429578687376
H         3.91532927519196      -1.44906701171218       1.34408410668034
H        -2.84796583799381      -2.85326398219632      -0.72967264758541
H        -4.06834553573024      -1.62313884529848      -1.09047237212047
H         5.35244132307733      -3.15135307650622       0.25335870854343
H         4.58516672700154      -2.82867161954748      -1.30969479291552
H         5.56807294350519      -1.57806460164112      -0.53030201224723
H        -5.12304607251495      -3.67022562338337      -0.16614339760786
H        -4.14090726452869      -3.53745175548603       1.30181057233749
H        -5.36064591114058      -2.30602973216279       0.93790969466737
Cl       -2.54089404120055       3.38167699458766       1.64780194039094
