46
C14H12F18NP optimized with DFTB in AMS.
N        -0.29050318279440      -0.83899782393855       0.85710255339352
C         0.80923249302153      -0.06709879251709       0.26268865149848
C         2.14707629115347      -0.45148313349335       0.90003247269413
C         3.28263785963330       0.35741539412069       0.28238660385496
C        -0.90609400134628      -0.37151008824570       1.95506889471429
C        -0.63978671084990      -2.01641310647265       0.31483584312353
C        -1.97033379231569      -1.05435789337960       2.50464976453265
C        -1.69516099790894      -2.73877937075290       0.83095418183619
C        -2.38617518689449      -2.24916949941181       1.93197685338633
H         0.81865592525743      -0.27034912292440      -0.81131556261226
H         0.59582529117334       0.99345260256139       0.42019662786310
H         2.32219701398818      -1.51793617581225       0.74609842434084
H         2.09617327093269      -0.26686534325195       1.97518591075263
H         3.35290250162511       0.16915657097223      -0.78976642822096
H         4.22305776480144       0.06755055017644       0.74882314126828
H         3.12878439215326       1.42549588620111       0.44127481534755
H        -0.53147920236233       0.55415842077710       2.37433979002762
H        -0.06086128004790      -2.36094509796292      -0.53306232576220
H        -2.44791059218701      -0.66462107740022       3.39383889489566
H        -1.95521752343793      -3.68906026221450       0.38310850489684
H        -3.21233795406606      -2.80532279830025       2.35680754451547
P         1.38082521800228      -3.48922464311655       3.76514372230432
F         2.29630163332301      -2.36699814563275       2.89891367718058
F        -0.06647246920320      -3.01978527149179       2.98736586640860
F         2.77521327505654      -3.98549517770920       4.53095765925763
C         1.70021632511724      -4.60430293969718       2.17428412720294
C         1.08528753776187      -1.92728554367834       4.97802257692412
C         0.36662395019391      -4.76617346636910       4.91995213479981
C         3.11926437199315      -5.16587921129632       1.90377443206001
C        -0.12924601556363      -1.70815872314802       5.92702137901564
C         0.28157117168411      -6.30860481251805       4.74851128571662
F         1.40970327229394      -3.84132757773383       1.08339488775288
F         0.84043016948042      -5.63707733374731       2.13153607194187
F         0.94131605896021      -0.86076093168228       4.13271097723657
F         2.18926204975692      -1.70232190460301       5.69876061693455
F        -0.91267905408859      -4.33805413128719       4.99699430460171
F         0.91814149765059      -4.57307045770442       6.13643387226020
F         3.13113634190532      -5.82545701544756       0.73997964631055
F         3.51121465182360      -6.00541908331801       2.85226626307275
F         4.00804638852468      -4.17976270415286       1.81528190129571
F        -0.05199830056170      -0.46884780322334       6.42753738513755
F        -1.27354723718901      -1.76742385204547       5.22752808940665
F        -0.21742647000114      -2.54199948392640       6.94652683459124
F        -0.66252223237522      -6.64104533345768       3.87025986745133
F        -0.03346181023492      -6.88002072482883       5.91033175850585
F         1.44094544696079      -6.82069555571540       4.34526919258375
