48
C12H22F6N2O4S2 optimized with ForceField in AMS.
N        -0.88023159210482      -0.16895164314017       0.05238353043203
C        -2.01196323099869      -0.28674700360192      -0.91749338806876
C        -1.21840955328369       1.01758759142672       0.89776274508064
C         0.39316219555667       0.07506052435512      -0.70084249685352
C        -2.83894820785406       0.98104617131048      -0.83605428816060
C        -2.64109966847020       1.43831101947644       0.58124123643002
C        -0.80860099966226      -1.39093687813281       0.91720947914697
C         1.65507689649925       0.20176214635693       0.18674461936806
C        -0.46695654179758      -2.69005746413376       0.16564003084449
C         2.86301215804793       0.64263996992992      -0.64976379513491
C         4.11175427468495       0.79046410179282       0.21360772441523
H        -2.69425707069777      -1.13153172783625      -0.66748475769371
H        -1.67775587789397      -0.45349103283844      -1.96724828628862
H        -1.11817206263923       0.82281513210610       1.99035080405937
H        -0.56744169698871       1.89390782178877       0.67516979221626
H         0.57070435309711      -0.73723477536523      -1.44024014336715
H         0.29142771473299       1.00718908174668      -1.30445565040401
H        -2.43493256521243       1.74269810350785      -1.53942000201411
H        -3.91167015964133       0.79392290330297      -1.06076341432756
H        -3.35149116400595       0.90633630160467       1.25244331143499
H        -2.78279324872622       2.53665973462822       0.68061265019299
H        -0.06207844700450      -1.25610957250994       1.73026272957471
H        -1.78370602082174      -1.54486653867130       1.43467202476645
H         1.49206625377771       0.93994985204286       0.99969878414362
H         1.89288405957847      -0.77898232290203       0.64962744163997
H        -0.55951059136264      -3.54707301282138       0.86551752444581
H         0.57731172612815      -2.67676249753173      -0.20635735925177
H        -1.15773521268298      -2.86741309554055      -0.68356842028316
H         3.06106620142180      -0.11003607035484      -1.44404591385099
H         2.64950586659916       1.61974760004789      -1.13558504650927
H         4.33795173757129      -0.16407242635672       0.73129447492636
H         3.96557996929333       1.58880031513582       0.97148026207148
H         4.97614603895653       1.06231523680966      -0.42817161105798
N         8.28062666049361      -2.14031994202887      -0.88730685050937
S         7.48786178155563      -1.85483721527608       0.51856800830198
S         8.11034237361409      -1.19429480255518      -2.21551352081363
C         5.95551908063876      -2.76320631119161       0.51795176539442
C         9.47817293524622      -0.05741200353986      -2.29618426273249
O         8.33188561045204      -2.33281404762468       1.66560181537730
O         7.20831928948882      -0.38671591741000       0.68169384877954
O         6.81861166311836      -0.42617312602946      -2.16625090296018
O         8.13122657033376      -2.06095777240794      -3.44232860942017
F         5.26727160513180      -2.51359590307953       1.69002235667022
F         6.22369544555133      -4.11549227696507       0.42535197397278
F         5.18263328478323      -2.37715586993402      -0.56047393596952
F         9.34640033325535       0.74844085720278      -3.41102541893058
F        10.66157964355008      -0.76620728509295      -2.38071606928747
F         9.49644237169036       0.72985661359963      -1.16074580099615
