29
C7H14F3NO3S optimized with DFTB in AMS.
N         0.52828731673947      -0.72860564843958      -0.46307344684172
C         0.06225307905300       0.67961620478404      -0.65108126784754
C        -0.71334033349667      -1.51586593385658      -0.14006899182304
C        -1.05068285170657       0.85589924627963       0.37144349349834
C        -1.72122951407687      -0.52160969643073       0.43907901872512
C         1.49376512653061      -0.81036734271435       0.66779459520725
C         1.18888309357266      -1.23164594503639      -1.69554982996811
H        -0.32642443376422       0.76950929426657      -1.66837624080257
H         0.90091047566237       1.36374850727331      -0.52010413589788
H        -0.44751901321579      -2.30766613650326       0.56094959697052
H        -1.07109984920260      -1.97662868925278      -1.06166315426319
H        -1.74620337032581       1.63430771007351       0.05510560343301
H        -0.63937541327780       1.13768883387148       1.34353046557010
H        -1.97833961135533      -0.77972174932217       1.46761826562916
H        -2.63883352955128      -0.53176598389946      -0.15310776252735
H         2.35670415299186      -0.18616121715702       0.44290659740247
H         1.00735627229287      -0.46841581986256       1.57803902693705
H         1.79929923936470      -1.84886504269769       0.78627564383014
H         0.49342779106769      -1.15385495102468      -2.52872515596831
H         2.07609774505503      -0.63120405100599      -1.88842529316311
H         1.45874106340367      -2.27459882026496      -1.54074977708487
S         0.93133366571976      -4.62816572833792       0.14708012229192
O         0.89711713757185      -3.72382494188166       1.29419809617275
O         0.36240401859736      -4.03036210304616      -1.05795009358866
O         0.54964205050756      -5.98554242153950       0.41170148105076
C         2.74254176883685      -4.66847859108830      -0.25606812538686
F         3.47444749375974      -5.17962223570713       0.72114238742086
F         3.14929205135280      -3.39255694478598      -0.44363676205330
F         3.00004193959310      -5.33206874689376      -1.37355044192293
