40
C12H25NO2 optimized with ADF in AMS.
N         0.11623593550164       0.34558330925302      -0.08829625324255
C        -1.06250061544680       0.04357694435327      -0.99897194832787
C        -0.35946951107321       1.51785341441075       0.80070128926821
C        -1.74858140845732       1.38235450713761      -1.18238156883169
C        -1.70675399002969       1.97259115821460       0.23062287689642
C         1.29442165914537       0.80749190573984      -0.94096130573176
C         0.46205758590427      -0.84335389377433       0.76428057206278
C         2.58587676259625       0.97913439495286      -0.16328226912363
C         0.91215508184394      -2.07106146819716      -0.00858244380055
C         3.62446461175174       1.66182869587744      -1.05412195700388
C         1.18981820796810      -3.22658581015520       0.95174580650359
H        -0.69511894747393      -0.42571195025264      -1.92084800270185
H        -1.70896653008172      -0.66442742923170      -0.45444270908451
H        -0.42693908274109       1.14370411186877       1.83121086517503
H         0.39306038330172       2.33883297773067       0.71239102152031
H        -1.16821164254861       2.03650075265059      -1.85376573885573
H        -2.76930723915155       1.25518206726510      -1.57263454611144
H        -2.54703514626933       1.59588130379346       0.83761048805043
H        -1.74368906911354       3.07134524763101       0.20346684941850
H         1.41024396440759       0.06643115461320      -1.74745591993465
H         0.97841917142172       1.79042460923903      -1.36258049524920
H         1.24548632660844      -0.51451405985629       1.46329499183131
H        -0.44135251326355      -1.06755286819759       1.35446289852322
H         2.40458457926286       1.63232536318500       0.70561122402035
H         2.97796536358041       0.00944539719157       0.19085631728769
H         1.82197606582874      -1.84105045051696      -0.58463748416706
H         0.13603453707231      -2.37084714348783      -0.73230453426162
H         3.78357990573687       1.10611354837762      -1.99256865951147
H         3.28580724662103       2.67782796408095      -1.30011571119124
H         4.58999066541606       1.73448803929366      -0.53289455985357
H         1.97942541942743      -2.96102449364693       1.67209523261515
H         0.28685213460570      -3.49440570527123       1.52260942438774
H         1.51973952728545      -4.12012512341005       0.40304673142503
C         1.29455964627829       5.74651668230551      -1.16549746298517
C         1.00308064672076       4.28053416850154      -0.82170427555808
O         0.41926675862866       3.59042592047287      -1.71697852609532
O         1.36080241995445       3.88127536883047       0.32963963231705
H         1.48529196888070       5.86353444396809      -2.24133567408904
H         0.40854729604456       6.35295616969217      -0.91750471098711
H         2.13994030455529       6.12644615436723      -0.57563486310380
