46
C12H26F6NP optimized with DFTB in AMS.
N        -0.94919822726706       0.21067701325680       0.51849200023761
C        -1.86438739765108      -0.96278185932748       0.35640089335321
C        -1.29203549279896       0.72260139213024       1.88737811188119
C         0.49055978835177      -0.20785133904855       0.48988860249069
C        -3.17490006499636      -0.55924818318349       1.03208796360829
C        -2.80214549449755       0.56734724584445       2.00940885258159
C        -1.26807020436271       1.23286714769730      -0.53739648503605
C         0.98101519356666      -0.74618863950120      -0.84929384587354
C        -0.39758086709831       2.47984098264463      -0.50499126109421
C         2.42038006737631      -1.26199533565962      -0.69426971278221
C         3.39783338093610      -0.16073505389478      -0.26610758613443
C         4.84150529477416      -0.67028319873258      -0.24656130817670
C         5.78831373509807       0.41309747351300       0.26752875955041
H        -1.40511213078227      -1.80988901966189       0.87033218408412
H        -1.97910972244702      -1.20238554766823      -0.70088197935907
H        -0.94061353877416       1.74521223234435       2.00278759329286
H        -0.77020675913179       0.09524071631006       2.61114874095163
H         0.60856204784768      -0.96795565070526       1.26501076739598
H         1.06829954664724       0.66499144775084       0.78489827590811
H        -3.60492987409349      -1.41687018440153       1.55213601652621
H        -3.90120811891720      -0.21181040887384       0.29431282299764
H        -3.31665802584030       1.49379314169073       1.74591942401235
H        -3.06918631007354       0.31289991496470       3.03608021343322
H        -1.16931652773741       0.73243524664988      -1.50401201422023
H        -2.31622086188557       1.50961140232630      -0.40196403458806
H         0.34189820790012      -1.56647765282952      -1.19033181120413
H         0.96261322457176       0.03860248490902      -1.61071336783307
H        -0.74168015284551       3.14069211169878      -1.30053029090472
H        -0.48029253923489       3.00733180009364       0.44214856931253
H         0.65017109803945       2.24678783959769      -0.67905935015957
H         2.73638158145844      -1.67806815552906      -1.65656702465701
H         2.43523366621377      -2.07320223182168       0.04098153709425
H         3.14418880374638       0.19534783338296       0.73596552705794
H         3.31575918551275       0.68677176608655      -0.95560654229654
H         4.90665692043906      -1.54880208095280       0.40439853750088
H         5.14104111230384      -0.97766081051472      -1.25495381847613
H         5.49193745167475       0.72964132249578       1.26804158590787
H         6.80854565774378       0.03100841325014       0.30825167071001
H         5.76719407585718       1.28229934279449      -0.39130496068227
P         1.83140254399585       1.93243435376257       3.38444589970109
F         2.36491319378112       1.47213442957228       4.84564509543644
F         0.29707926842308       2.15534970914563       3.97062920144376
F         2.20005111963706       3.48894893386363       3.66851450358535
F         1.23973357919318       2.36633738493887       1.85406264421768
F         3.29594910449767       1.65898218537886       2.69944961177632
F         1.40761541354791       0.33864103851205       3.03626023732879
