25
C7H10F6NP optimized with ForceField in AMS.
N         0.15549717380253       0.00120457823190      -0.37351873429391
C         1.60178055809288       0.00130537414273      -0.62465484114154
C        -0.51061560577806       1.18902906393023      -0.24350162089436
C        -0.51031152953990      -1.18619303678770      -0.23792119300078
C         2.36498899261645       0.01066015128259       0.69490881955746
C        -1.88155198794639       1.20755841625230       0.02739369777070
C        -1.88130812723484      -1.20367563125898       0.03313172980823
C        -2.56817939027666       0.00221197294103       0.16653351947405
H         1.89577684838166      -0.89568150437831      -1.21408879108887
H         1.89314469660171       0.89175010233333      -1.22516178442020
H         0.01952000961234       2.12916824922317      -0.34069671270896
H         0.01995750585147      -2.12671545376471      -0.33053697256761
H         2.10028266377932       0.91497261032983       1.28260483825770
H         3.45543423594718       0.02187144122451       0.49658346402295
H         2.11749309622990      -0.89730206144358       1.28467042275097
H        -2.40497009248718       2.14907380471370       0.13255642005194
H        -2.40464571286307      -2.14472683134245       0.14286389072084
H        -3.62961631761883       0.00266333512555       0.37959943273697
P         7.06031473364138       0.85199195994608       0.35561759460992
F         5.96411637299774      -0.41097955007526      -0.03441969697311
F         5.77971081262391       1.92331584242551       0.76159460340651
F         7.08038012071773       0.33812776853250       1.99485118745866
F         8.25519979241167       2.03794189569040       0.69806000703193
F         8.33335874058588      -0.23102692811644      -0.04069218029672
F         6.96687789095120       1.41813723084206      -1.26364092797276
