57
C15H28F6N2O4S2 optimized with ADF in AMS.
N        -0.79317435369610       1.02967381232887       0.05070845292017
C        -1.71294144822685       1.13817435433140      -1.15849859499564
C        -1.47085138448899       1.68738260068768       1.24663805718283
C         0.46488871447628       1.81567891932019      -0.29811486239055
C        -0.47714742295556      -0.40935855502164       0.38736907221744
C        -3.10472145114242       0.58512685414008      -0.90883178344763
C        -2.87031649797255       1.15436250401975       1.51473580337060
C        -3.75801730015231       1.29050642140374       0.27903400528576
C         1.54595335817533       1.82588311398918       0.76681961979602
C         0.31886441570526      -1.16821245587450      -0.65938420837210
C         2.76314261070407       2.61426674129126       0.26805630136832
C         0.53897564750654      -2.61628832414527      -0.21430356734216
C         3.84935083663292       2.71317596676173       1.33450619986403
C         1.34892453307504      -3.41057791689168      -1.23467955793323
H        -1.20090233448770       0.64014207835830      -1.99229100774513
H        -1.76792207679457       2.21238897178429      -1.37722846806713
H        -1.52213123908981       2.75548677017762       0.99615799188735
H        -0.80537537851078       1.54067025420884       2.10734252945208
H         0.12752128831150       2.83640429799504      -0.52326901630142
H         0.83967283000790       1.39001487822621      -1.24063716751381
H        -1.43710822300735      -0.90964988038939       0.56846305908718
H         0.06810714292858      -0.38649028520575       1.34244558204617
H        -3.08524981776536      -0.50839928355476      -0.75553271209878
H        -3.68381554491747       0.75920149492654      -1.83125447987516
H        -3.27523454238826       1.74976352601654       2.34972966557764
H        -2.84252576660626       0.10733042556819       1.86346462659696
H        -3.87674787923060       2.36102089246859       0.03829308876096
H        -4.75893892567900       0.87642259004405       0.47491261342404
H         1.86802245217936       0.80261315436706       1.03110885943076
H         1.17475496715944       2.30654502051118       1.68718379487344
H         1.29964787548721      -0.69215301278355      -0.82299785193694
H        -0.20910486129907      -1.16958802666958      -1.62748071810815
H         2.43995529637844       3.62007634152935      -0.04342303072710
H         3.16692667601216       2.12725203907309      -0.63761348487435
H        -0.43965932861193      -3.10347365403026      -0.05323724053453
H         1.05828727223979      -2.62383493149053       0.76077238089205
H         4.20889024183188       1.71646597253562       1.63808702306264
H         3.47131121855704       3.22575599867602       2.23341476305739
H         4.71232731448317       3.28529686332240       0.96279386324140
H         2.34135404588460      -2.95842287004789      -1.38815131417158
H         0.83711137057288      -3.43816778835900      -2.20947059580455
H         1.49824623865384      -4.44801528542230      -0.90134349391106
N        -0.95890111847837       6.37501648217188      -1.43662273411166
S         0.08008991203976       5.60649010864334      -2.40336177591984
S        -1.80550829964343       5.64178340901726      -0.30667546684696
C        -1.01954396568339       4.69904836341456      -3.68853442773836
C        -0.71423826919959       5.71300424689559       1.24204046355388
O         0.77348538216283       6.61472031243448      -3.18338777164693
O         0.84081086003231       4.51654547292874      -1.78577506466815
O        -1.99810482129637       4.19096041016010      -0.49997660274195
O        -2.95150986498238       6.45395745891684       0.05956569863908
F        -0.47447792124359       4.83111149058080      -4.91824598023441
F        -2.27879136593432       5.18552284014595      -3.71579088229498
F        -1.08928477526457       3.36327995191287      -3.41153003002551
F        -1.38699544998432       5.14634886768939       2.28726432095275
F        -0.40245933325274       6.98106104929983       1.57031432189038
F         0.44153665188787       5.01350996751165       1.08076419714843
