32
C6H12F6N2O4S2 optimized with DFTB in AMS.
N         0.25099284615779      -0.19558390532469      -0.82516738117831
C        -0.17542254784952      -1.58891936294390      -0.51698398918760
C         0.32750513393764       0.58832231530946       0.43378820269397
C        -0.73239365353304       0.43248493804731      -1.74826840640286
C         1.58653723024489      -0.21742247687817      -1.48131539281494
H         0.55711883551618      -2.04108413115350       0.14841233268802
H        -1.15295438286151      -1.56207715157113      -0.03942839987732
H        -0.22423676835092      -2.15128596676323      -1.44738309917891
H         0.62849970920508       1.60748662567282       0.19858727769272
H        -0.65000153522005       0.59081104448265       0.91276893692210
H         1.06240849381640       0.12749980104168       1.09116866945952
H        -0.40287298894828       1.44355149006535      -1.97923584274298
H        -0.77537030857263      -0.16052456434351      -2.65987866991773
H        -1.70786297823732       0.45550084563915      -1.26622847283536
H         1.91610414927087       0.80529419371707      -1.65115346361175
H         2.29325220830995      -0.73975072618373      -0.84029234769099
H         1.49471164009319      -0.73726674911179      -2.43162910867599
N         1.70250924285799      -3.20050383456942      -5.01724748931432
S         0.34759987609275      -2.36548966392566      -4.88600638388681
S         2.97220562759790      -2.65996440798198      -4.20418215727272
C         0.57613531172112      -0.68997760155400      -5.72253884922624
C         2.92636851386867      -3.45832795969064      -2.50052955224704
O        -0.65481569647434      -3.03856125219052      -5.66071158843909
O        -0.02208747180143      -1.97029422501711      -3.52342105007027
O         2.94667502605056      -1.24195523764479      -3.89506188538149
O         4.15495654653569      -3.21215146530952      -4.79553815632833
F        -0.47564864268783      -0.43673512491481      -6.48383701965977
F         1.66458963632847      -0.64667539305038      -6.46166335857840
F         0.64522980215369       0.25874882346135      -4.78673678864835
F         3.74655395167498      -2.79006712624259      -1.69169926783005
F         3.29936085614163      -4.72168597259118      -2.54249531242164
F         1.70764409636144      -3.39702692608061      -1.95401882953703
