22
C8H12ClN optimized with DFTB in AMS.
N        -0.57139910195454       0.00097146033008      -0.49841524371418
C         0.86947485968094      -0.00510160042687      -0.69841139121891
C         1.58743429353505      -0.14561690901633       0.65062204244019
C         3.10295488605863      -0.16352727699745       0.46854168443193
C        -1.23606400920257       1.18154270210218      -0.24732150060916
C        -1.27600226124438      -1.18282314801760      -0.46575585013664
C        -2.53674229139616       1.20798416040620       0.07499530674994
C        -2.57805384605509      -1.22470351840857      -0.15027525214765
C        -3.29856910974158      -0.03121980340559       0.34620979775392
H         1.13053580951753      -0.84021132188624      -1.35655426862571
H         1.16108449088802       0.92942125359474      -1.18856165593133
H         1.25950868234573      -1.07110112473930       1.13337060661643
H         1.29982192240866       0.69001776068198       1.29565041694099
H         3.40357213206479      -1.00554023243890      -0.15663767796418
H         3.59352906508154      -0.25791202252754       1.43709018359521
H         3.44270696090057       0.75904476045008      -0.00441523786977
H        -0.65358792195783       2.08514302445458      -0.39085501375437
H        -0.72383763158960      -2.06390384520031      -0.77438251447797
H        -3.03859000250992       2.15478799336201       0.22900831181025
H        -3.11093679235301      -2.16668963593173      -0.17281314191392
H        -4.33240555148031       0.01792502517067      -0.00083766334357
Cl       -3.51069732089649      -0.19974085115606       2.19958843496848
