38
C12H22N2O2 optimized with ForceField in AMS.
N         1.91830484932947      -0.91652088401674      -0.23214627609720
N         3.14089396446798       0.93383685306479      -0.08057569525937
C        -0.35587614797011      -1.87170113212240      -0.08586147850747
C        -1.04663833256614      -0.52561425861510      -0.34707879366382
C         1.02077518211414      -1.94346729074641      -0.75924722992062
C        -2.45170519628569      -0.49444602669774       0.26338883688860
C        -3.11159003914942       0.87171093604662       0.04246932626751
C         2.36852248665334       0.17512640050427      -0.88206266751576
C         2.42727990459189      -0.84697587703581       1.01494805542143
C        -4.51748149678303       0.90854337632402       0.63337680515431
C         3.18631426245877       0.30167172840834       1.10820467475909
C         3.76991208962071       2.20599638255811      -0.40989880695459
H        -0.24240490941137      -2.03042563342630       1.00883403168191
H        -0.98683557696944      -2.69436832922989      -0.48766241730529
H        -1.11870889660602      -0.35424129752515      -1.44379787462851
H        -0.44058514768626       0.29299580965052       0.09910499669035
H         0.90070083093339      -1.81983439650263      -1.85822168890546
H         1.46756914205245      -2.94547962958530      -0.58168681849773
H        -3.07457242891471      -1.28683707650028      -0.20736058999992
H        -2.38458410322650      -0.69779253883823       1.35508446861946
H        -2.49915296219921       1.66541986523987       0.52374004774213
H        -3.17334907860013       1.08726992115327      -1.04661984021990
H         2.12087746559777       0.42248132914398      -1.90737937544045
H         2.24877817056342      -1.56860259426242       1.80150457549232
H         3.71817963835070       0.65614281111618       1.98157524423942
H        -4.48176741972480       0.71537570417627       1.72672393752621
H        -4.96493866824836       1.91064944874069       0.46418440967801
H        -5.16058463184750       0.14530833637063       0.14576189488625
H         4.87215374601442       2.11285561215632      -0.31692064610884
H         3.51856015575551       2.50719024897746      -1.44793221824422
H         3.40739708559100       2.99242062189040       0.28484258014892
C         2.93664044049449       2.40202804320029      -6.18746593445397
C         3.13031278090006       2.82647141838247      -4.76647609331028
O         2.43666860031061       3.71248854937472      -4.29430858195511
O         3.98128656602741       2.28968191200809      -4.07579397994478
H         1.90859313775826       2.00474653455090      -6.32079276617758
H         3.08311707658779       3.27269553865948      -6.86077156052952
H         3.66623243371509       1.61007743710670      -6.46165625245554
