66
C18H34F6N2O4S2 optimized with ADF in AMS.
N         0.27993128954693       2.17253919644397      -0.18947232353212
C        -0.18548932377668       2.94836052074934      -1.40933682823958
C         0.76087790357450       3.29568310568276       0.71483566791504
C        -0.86973538765417       1.45167812349938       0.47817977089843
C         1.41222693897260       1.23588373012430      -0.56029041731144
C        -0.86678954080303       4.20396603301251      -0.85735328468741
C        -0.28310835233100       4.39588089936665       0.56768542302309
C        -1.43677218643049       0.26749420401109      -0.28496408736344
C         1.96470668700716       0.43510900615652       0.60297812215020
C        -2.64593550528463      -0.30948378427013       0.45617292282384
C         3.20282343156672      -0.34536523273082       0.15679160070238
C        -3.24686399278185      -1.52233840185470      -0.25010293328104
C         3.84480180856268      -1.11425373213728       1.30811932531015
C        -4.45836613805469      -2.10141317415989       0.47755583895746
C         5.13600206902053      -1.82170293499413       0.90385547891147
C        -5.05309701347457      -3.30885238222832      -0.24181967916904
C         5.76963905812442      -2.59133620182605       2.05920562451468
H         0.73090139970776       3.20706210661315      -1.95806108337790
H        -0.82279404960310       2.30369466690518      -2.02708006656509
H         0.90681895739664       2.91720906939767       1.73271310588140
H         1.72399955053464       3.61449440901670       0.30658287783173
H        -0.49746627098232       1.13073839638009       1.46253295392287
H        -1.65107472584964       2.20624318413020       0.64714182930299
H         1.02969749614540       0.58360897405182      -1.36088378102639
H         2.19500617503929       1.88396240695108      -0.98160040392302
H        -0.63627166188450       5.05847301270246      -1.50899432100994
H        -1.96128324520531       4.09363325033293      -0.82999676609540
H        -1.06920305505864       4.31777978835703       1.33367166947366
H         0.20484736785601       5.37166817828795       0.69384638396898
H        -1.74887076001513       0.56689400510537      -1.30016967838259
H        -0.67442913714613      -0.52045175896843      -0.39801766325144
H         2.27129737389291       1.12167860629884       1.40850492939347
H         1.21377030347527      -0.26608429725148       1.00855353863752
H        -2.34635507392228      -0.59545429400756       1.48168199170450
H        -3.42035254971538       0.47245187286127       0.56317540854522
H         3.93586591435740       0.37113534306608      -0.25211876227143
H         2.93622020035162      -1.04531165393679      -0.65725961781813
H        -3.54117646756559      -1.23869253237507      -1.27824542373214
H        -2.47408109005928      -2.30694433661045      -0.35280994295131
H         4.06421234437806      -0.40705742875883       2.12917924592965
H         3.12852132154190      -1.85681789275240       1.71055150391469
H        -5.22805029731550      -1.31527987003618       0.58396645916847
H        -4.16273428146055      -2.38797732660459       1.50365666535404
H         4.92991161537224      -2.51055803543615       0.06412535762316
H         5.84883528444393      -1.06844189114455       0.52264512056134
H        -5.38086003815638      -3.03885287146790      -1.25880144349800
H        -5.92377708013228      -3.70940075721305       0.29817278691683
H        -4.31073306479917      -4.11796842941918      -0.33349665544443
H         5.09079343474361      -3.37664335671076       2.43044103888766
H         6.71017385195659      -3.07394373331454       1.75419586882769
H         5.99392983253752      -1.91684811843119       2.90129721700456
N         4.90315772615276       4.72833642730168      -0.65598483211452
S         4.37402852692001       4.19785028556539       0.76891603321953
S         3.94559778903028       4.79756796960599      -1.92591359514744
C         5.98167444316554       4.46102835689076       1.71459852656267
C         3.02916079926973       6.45533514103996      -1.79285253508048
O         3.37842729357674       5.06298900159972       1.40999454737492
O         4.13982305297367       2.74943051723212       0.83280412298775
O         2.83448223120028       3.82686107648287      -1.91302255586158
O         4.74729605486410       4.95141268556240      -3.12614517870113
F         5.74690531087780       4.13266657058704       3.01016153217208
F         6.39243456079573       5.74355385316900       1.66185317290935
F         6.95870157563661       3.66028213361608       1.23822228903426
F         2.57548657452877       6.80729503460858      -3.02213350049739
F         3.83196339147207       7.43321455790250      -1.33034810781910
F         1.94816658939189       6.35924825957196      -0.96701484266482
