61
C17H36F3NO3S optimized with ForceField in AMS.
N         0.00221415360509       0.00222371673846       0.00044858129936
C         0.85540227782257      -1.02151176091499       0.70318461886369
C        -0.88063245860004       0.67229350927415       1.02093219513736
C        -0.81272620757631      -0.69943336055424      -1.05441326307397
C         0.84690886359425       1.05614158571711      -0.66736090436903
C         1.89881347558099      -0.46623455830011       1.70715144060077
C        -1.97413150029331       1.61949168284710       0.45967858935578
C        -1.87349926955589      -1.70592038447201      -0.53614161789432
C         1.94093475854137       0.53594309090061      -1.63661319521774
C         2.68062751523795      -1.61505181475689       2.36070846539927
C        -2.79250853615287       2.23581169031012       1.60386467841719
C        -2.62588408733873      -2.34876723882384      -1.70942566038937
C         2.72194216423373       1.70614106722449      -2.25062826945311
C         3.71008093137592      -1.09124530929064       3.35843294546642
C        -3.86971263368325       3.18098758998964       1.07555909395266
C        -3.66874076177369      -3.34937065374701      -1.21841441392530
C         3.79019126960889       1.21038257614061      -3.22236021709215
H         1.38813014661573      -1.65937867822837      -0.03700572654261
H         0.21295733575861      -1.71753119377825       1.28379158417059
H        -0.26405301586396       1.28777066666797       1.71096487860182
H        -1.37676232733478      -0.08752675904914       1.66516137441679
H        -0.14569083353399      -1.27965276173215      -1.72715371936723
H        -1.32184931991044       0.04175691811054      -1.71017218125665
H         1.33415478830498       1.70583168498388       0.09374102883820
H         0.20387330136486       1.73587077999977      -1.26619053044628
H         1.39671689989604       0.10588572463369       2.51316685402597
H         2.62492202855976       0.19984669074390       1.19917637334955
H        -2.67283879986505       1.07563625281332      -0.20660959425655
H        -1.51329567535896       2.44465951012819      -0.11809216915515
H        -2.61571299169508      -1.20479049542005       0.11687673169742
H        -1.38889436787302      -2.51889472975653       0.04092980855093
H         1.48323789670503      -0.03756578491267      -2.46755678652955
H         2.66202066734049      -0.12026762087120      -1.10906548449987
H         3.20734027343577      -2.20485878249836       1.57897024188872
H         1.97815456641050      -2.29103235007283       2.89590540628629
H        -2.12037846488409       2.80225656957911       2.28484150058565
H        -3.28280645515303       1.42960722726137       2.19164843373399
H        -1.90639965657242      -2.87956441995373      -2.37075563657579
H        -3.13665334197315      -1.56176025258190      -2.30606515130452
H         3.21368003743173       2.29461397153439      -1.44553961549319
H         2.02465429639610       2.37630643700090      -2.79956813262570
H         3.20839391688516      -0.51428215750432       4.16439887526159
H         4.44881361489520      -0.43990276928269       2.84473674655284
H         4.24984063917849      -1.94590739452077       3.81838926035287
H        -4.59557015656453       2.62493680477554       0.44559898569277
H        -3.41649615510358       3.99506852477677       0.47203793739170
H        -4.41403642096087       3.63727322423587       1.92916774652389
H        -4.42332204673639      -2.83947493860167      -0.58234465599459
H        -3.18216307617369      -4.15917477350674      -0.63378626878404
H        -4.18678550820345      -3.80359773777368      -2.08924974154548
H         3.32309516607672       0.63456107781432      -4.04987476479220
H         4.52315609074673       0.56412731505258      -2.69400652233847
H         4.33005495590147       2.07826787551101      -3.65635827801302
S         0.01947453835223       6.02861378374604       0.98964782610465
O        -0.18900972830730       6.52504846287609       2.42776644946923
O        -0.63524705016814       7.12725735784436       0.13969319496566
O        -0.97557266104949       4.86814937135068       0.87817574348632
C         1.72713626298656       5.61134346755284       0.54649061071674
F         2.18577158446550       4.60616462729537       1.37632509292517
F         2.52522260487497       6.72975880023279       0.69119544587823
F         1.77037765547610       5.17964389224121      -0.76548434292424
