32
C6H12F6N2O4S2 optimized with ForceField in AMS.
N        -0.00234238549001      -0.00642431694184       0.00597238900987
C        -0.91296558567746      -1.11920584829445       0.35346683178681
C         0.65795547474977       0.49359464789771       1.23211902846201
C        -0.77654442913313       1.08879465657127      -0.61891594107153
C         1.02320830854939      -0.48867938272597      -0.94428058898066
H        -0.35490672167642      -1.95801591388454       0.82699609856220
H        -1.69848843210115      -0.78393461847794       1.06730976996247
H        -1.42180832987864      -1.51602925026061      -0.55373759563915
H         1.35142303035739       1.33265701452759       0.99834743360967
H        -0.09244737722256       0.86401825802899       1.96628682944959
H         1.24953064144339      -0.31122310324337       1.72362533978720
H        -0.11457018111360       1.94277204156658      -0.88737139175304
H        -1.28004334460780       0.74131744471170      -1.54899042509585
H        -1.56081801898886       1.46882457774002       0.07362074718223
H         1.71342432465438       0.33342699682143      -1.23007761999299
H         1.63025353386323      -1.30774377052231      -0.49700762583891
H         0.55421185458648      -0.87709127168692      -1.87601670605646
N         7.24312146353400      -0.37801477331919       0.14390552904483
S         8.21867434711158       0.50115015964700       1.12501459645188
S         5.64130020779869      -0.07175573895027      -0.02497748102028
C         8.30186656772625      -0.28483765297406       2.72086475554075
C         5.38914658358302       0.88701992953394      -1.50396071362638
O         9.59965697296224       0.54687338980325       0.53526946382672
O         7.69351499157099       1.90150607927203       1.28218046464847
O         5.11196294987702       0.68550823049675       1.16156140796028
O         4.90229963282466      -1.37282949875514      -0.15937938321995
F         9.14333242230648       0.43423502139518       3.54810118166970
F         8.78961734806183      -1.56992620941486       2.57706122690811
F         7.04035973197084      -0.33479205221740       3.28241778418474
F         4.04720842066726       1.17627302606866      -1.64673318439749
F         5.82077667802445       0.16603447744077      -2.60105345385812
F         6.10269181566625       2.06709803754601      -1.42128573149672
