43
C13H27NO2 optimized with DFTB in AMS.
N        -1.73291560432927       0.26122763525194      -0.16359323930229
C        -1.96557894479591      -0.51160292670164      -1.42273906031134
C        -2.94838161617134      -0.06478106076762       0.65792858984676
C        -0.51167492396676      -0.22437482273459       0.56615367426523
C        -2.56141001981089      -1.84099422726678      -0.96465390073289
C        -3.22485016253157      -1.53846162141573       0.38782409577395
C        -1.66428639432631       1.72806289445026      -0.45368938274794
C         0.80670560302709      -0.02238198967559      -0.16976256518484
C        -1.37569880984677       2.57475486011152       0.77883106654060
C         1.94609046173165      -0.50905737074309       0.73534760795769
C         3.30685908471085      -0.33901786379447       0.05419879571453
C         4.44123466490855      -0.81838456710077       0.95813121854583
H        -2.68248444347337       0.05103966616769      -2.02649456662649
H        -1.03489198253061      -0.61458453317288      -1.97966852308369
H        -2.72871254417712       0.14779895850536       1.70849005200088
H        -3.76518132978634       0.56905042079443       0.30367218449065
H        -0.50195599969275       0.30449287047696       1.52214861195775
H        -0.66996179467404      -1.28071987642133       0.78579978484464
H        -3.28101654635793      -2.20289607287115      -1.70140368925118
H        -1.77957590554035      -2.59513711486887      -0.85441555020486
H        -2.78820537244431      -2.14423906605655       1.18549019628371
H        -4.30030156842716      -1.72156618095571       0.36014500794271
H        -2.63049349694001       2.00681171070757      -0.88377101830570
H        -0.89581671636963       1.87704111402462      -1.21715004519441
H         0.96529629864222       1.03354064604837      -0.40766428406259
H         0.82834932368518      -0.58609582767604      -1.10795306976299
H        -1.97979888819638       2.26066726559383       1.62831604125637
H        -0.32787633223318       2.51146843937890       1.06585531516415
H        -1.60694021800156       3.61292910534785       0.54164410201625
H         1.78717650770293      -1.56364771648480       0.98164279695263
H         1.93011453035249       0.05821760485710       1.67114805395969
H         3.32057121921113      -0.90858224723412      -0.88165742248921
H         3.46058743375869       0.71666185657389      -0.19507855453510
H         5.40031312211496      -0.68685716497955       0.45667768021575
H         4.45400826937114      -0.24938371990006       1.88851609062309
H         4.31659486297451      -1.87474289361013       1.19943236182444
C        -1.27768886862610      -0.73106428962565       5.15657629759700
C        -1.49243677254055      -0.51609104056206       3.64196588261174
O        -1.58026618337694       0.67338901972475       3.25034464776097
O        -1.54331504476131      -1.53611261264825       2.92578128036755
H        -0.20493747374979      -0.77971348389863       5.34343205209274
H        -1.69843550302641       0.10045271976473       5.71852046653412
H        -1.73270070168675      -1.66910226751370       5.46907850295409
