42
C10H18F6N2O4S2 optimized with DFTB in AMS.
N         0.01850236348821      -0.63851521877415       0.41213146483143
C        -0.77778351103441      -1.64110422549108      -0.37154983244472
C        -0.52697711469388      -0.75491363295525       1.80347977245425
C        -2.18559059509393      -1.58208256683192       0.20880528153674
C        -2.01120269217759      -1.08074944009276       1.65022147411170
C         1.47511248852440      -0.99461636506860       0.34378325100022
C        -0.21707572460420       0.72397668304036      -0.12640263203913
C         2.39066456740935      -0.08787323920712       1.15970183857550
C         3.78406963815462      -0.71687414704693       1.20888849526409
H        -0.33023337913886      -2.62137555112147      -0.19788200136103
H        -0.72364184144204      -1.39619421676978      -1.43240384049398
H        -0.34112328546789       0.17013033931168       2.34869332512523
H        -0.00274555874532      -1.57905695687747       2.28636237106815
H        -2.63782911194237      -2.57453998034939       0.18454534529538
H        -2.82025407122525      -0.90301411639540      -0.36545070142263
H        -2.62991494142043      -0.20026061265812       1.83421196982192
H        -2.28246440484143      -1.85268696077971       2.37291370227872
H         1.75698975925519      -0.98829309533251      -0.71218665969708
H         1.55767946215283      -2.01400028204240       0.71865658580296
H         0.17763114868148       0.77643123063959      -1.13970599029044
H        -1.28610518269284       0.92526277449586      -0.13433688074442
H         0.28599465287952       1.45299261846356       0.50506429168732
H         2.45081470189584       0.90935462370573       0.71300665388717
H         2.00510958245015       0.01562516522507       2.17727627939020
H         4.44572889119432      -0.09808766509592       1.81360289314178
H         3.73301538412665      -1.71280993524714       1.64915080301638
H         4.20029003692111      -0.80049320728265       0.20483094498410
N         0.33931330304552      -3.87090079226469       1.55176938897949
S         0.16638669450798      -4.20464631416195       3.11383493799559
S         1.61864685368737      -4.45479508489262       0.76912563613779
C         1.56241303573536      -3.38296498395077       4.06534792434528
C         1.54718151655832      -6.32707470406524       0.69757744703211
O        -0.99274304000978      -3.44580773513255       3.52911708562322
O         0.23976504698819      -5.60021617905037       3.45064859527578
O         2.88151098827248      -4.12665318639360       1.39406939280109
O         1.42983503967490      -4.03123344294128      -0.60437717739950
F         1.12569914886224      -3.06319962528235       5.27219769232996
F         1.90845393821668      -2.24697491077426       3.44261068731510
F         2.62213629129162      -4.15004315532523       4.17783913191696
F         2.16968236682149      -6.72016739870145      -0.40107582456670
F         0.28826594758414      -6.72277457511314       0.64250817156222
F         2.13925862885029      -6.85928767011256       1.74359186807177
