41
C13H24N2O2 optimized with ForceField in AMS.
N        -1.11908211965190      -1.73208459031434       0.24369875660067
N         1.10337754194687      -1.70186573122650       0.29918148979368
C        -2.50963068967163      -1.46498201029963       0.60493196867346
C         2.46672685276715      -1.40071837145278       0.73243970532733
C        -3.02629344556589      -0.20210467911438      -0.09780120059929
C         3.05671566964639      -0.23310227200859      -0.07085219160387
C        -0.02920338852666      -1.46225399840056       0.98793691448419
C        -0.66156680743023      -2.16756830496188      -0.94772123355135
C         0.71732604683845      -2.15274387481282      -0.91206862757463
C        -2.27116175094605       1.05513273983190       0.35793078525042
C         2.23994901395900       1.05548639171352       0.10384075218565
C        -2.85985065454966       2.31452882703265      -0.26948196159678
C         2.88128463579341       2.22118299084844      -0.64123909261203
H        -3.13705389602688      -2.33483708300099       0.31369987328647
H        -2.60110366291602      -1.34106926560736       1.70659293899633
H         2.47586611308658      -1.14367946366253       1.81479316761036
H         3.10133553762422      -2.30251956954510       0.59593100354616
H        -4.10670392447410      -0.08736365920833       0.13762420316835
H        -2.92530304783230      -0.32166129716227      -1.19878695555976
H         3.09751307534456      -0.50688253912506      -1.14771972178530
H         4.09785545383409      -0.05873346351026       0.27788915968070
H        -0.06030169701594      -1.03872542233241       1.98462777366953
H        -1.28218161492785      -2.43909429301939      -1.79180902144490
H         1.38591708653791      -2.41075314709921      -1.72306055381043
H        -2.32217461560970       1.14602700203878       1.46481863253087
H        -1.20417645164781       0.98132782596825       0.06049535242937
H         1.21446550253499       0.90788811849912      -0.29578722253324
H         2.16484350694752       1.31204716836993       1.18303153370271
H        -3.91652927249043       2.44484492965037       0.04678296632421
H        -2.81148761402796       2.25266077529694      -1.37752427088708
H        -2.27806982491854       3.20074908964250       0.06171610589019
H         2.93733804752715       2.00012708178392      -1.72831656514953
H         3.90393904239350       2.41077107553497      -0.25201171559340
H         2.26821624432147       3.13600179779458      -0.49716994310344
C         3.69355720658522       4.65544402348370       2.03059342049263
C         3.29621935346747       6.01882941379846       2.49959430195945
O         4.07752702564018       6.95037653488984       2.39546709142341
O         2.19159437554963       6.20574648849819       2.98382023882624
H         3.89562476994445       4.68550731424696       0.93988161702916
H         4.61169708563858       4.32937756111018       2.56293674569907
H         2.88375887080079       3.92034569503122       2.22731363562443
