53
C15H17F18N2P optimized with ForceField in AMS.
N         1.01362897058011       0.27839209285154       0.32518336309505
N        -1.04271949755606       0.21389943200021      -0.51951169219427
C         2.28624875844457      -0.14966102681214       0.90427987380833
C        -2.31310549632405      -0.29590221107952      -1.03257856076352
C        -0.00458941232662      -0.51389976861358      -0.06340499662789
C         3.45587546729625       0.16338923122310      -0.03607396474377
C        -3.46901799874219       0.04994814403639      -0.08635514464250
C         0.60614403430602       1.54551567645543       0.10863570643251
C        -0.66840321331424       1.50539359642444      -0.41863536447882
C         3.37325690757323      -0.63674700553618      -1.33437756610268
C        -3.34383683948989      -0.67155329039013       1.25453337036216
H         2.26355277055482      -1.24130203074054       1.11756723735399
H         2.44096845972600       0.37628829512987       1.87104277026996
H        -2.25881548217321      -1.39891617771896      -1.16603664406469
H        -2.50814205294106       0.15083411920125      -2.03069741418815
H         0.00719561181957      -1.59560655366573      -0.00985651926678
H         3.47390929875641       1.24955310823672      -0.27059659023448
H         4.40730283709875      -0.09002247711392       0.47933583573944
H        -3.50403839753568       1.14746282272847       0.08536605798046
H        -4.42589013282245      -0.25065408006854      -0.56479469810443
H         1.18889758138943       2.43208527302506       0.32256094451289
H        -1.27511991504761       2.35388944599647      -0.70748670860510
H         2.45500781151227      -0.36864837470106      -1.89701341626897
H         3.36498257317360      -1.72606509242779      -1.11702456024319
H         4.25497425332392      -0.40738641984363      -1.96885490541593
H        -2.42077205572212      -0.35360674215006       1.78382281923458
H        -3.31797389880084      -1.77137486902931       1.10021565908494
H        -4.21821219172845      -0.42375685388079       1.89236651872046
P        -0.38240167849979       2.93755974325817      -5.90552015883658
F         0.82573069617837       3.22802179967696      -7.10142515756867
F         0.27367170826541       3.32299078148435      -4.35920135502859
F        -1.08885433717954       2.77235421255361      -7.46565804581514
C        -0.38365665353916       4.87039267223009      -5.85741251662395
C         0.82368094664673       1.43047910666197      -5.75883769525840
C        -2.06328049501582       2.16203727192833      -5.39268537538201
C        -0.95110230183614       5.57733628376326      -7.10791785349489
C         0.58883355259558       0.43709277234356      -4.59206653643843
C        -3.34284722795909       2.97442088051623      -5.66441669936783
F         0.92325018975099       5.31939842199083      -5.70597778371735
F        -1.09132107098990       5.32463280984323      -4.75569930443074
F         2.12738192051402       1.89419600744318      -5.61028900881552
F         0.76343710973618       0.70005401742094      -6.93605001734150
F        -2.02218727673838       1.90819905904155      -4.03368103096755
F        -2.22018574514529       0.95494720357373      -6.05373136064982
F        -0.81909290571877       6.94533866967671      -6.94692520813456
F        -2.28919018469086       5.30034755280111      -7.28130502311378
F        -0.26295298325900       5.21485604988777      -8.25124209426409
F         1.66415592681382      -0.43190911684086      -4.53083334328626
F         0.49801370065476       1.07838312415864      -3.37194588839384
F        -0.54119164111327      -0.32922127284370      -4.78879374704506
F        -3.29225769138050       4.21815995913875      -5.07366928264043
F        -4.41965407409120       2.29750365370905      -5.11879134446818
F        -3.57649252992962       3.10188697334543      -7.02125200346646
