40
C10H22F6NP optimized with ForceField in AMS.
N        -0.10574484764994       0.02939565398362      -0.07272577776904
C        -1.02138721684174       0.53650826502134      -1.14674086590848
C        -0.61915701065988      -1.29441445031421       0.41206070155189
C         1.23646984984943      -0.18473357955663      -0.71767353135485
C        -2.49508053960716       0.63711002286640      -0.71870422531820
C        -2.09435415711093      -1.27175809422374       0.86117733142621
C        -0.01618101415114       0.98877279349085       1.08319384441587
C        -3.00312136061198      -0.71449147088010      -0.22957339417597
C         2.37735764097313      -0.61979636757520       0.23598771651508
C         0.58954367693234       2.36670849810073       0.75970389007716
C         3.66772168640833      -0.87706441137587      -0.53768074882670
H        -0.98751110182809      -0.14287008182932      -2.03139497318697
H        -0.69315486853027       1.52585456655387      -1.52879862321281
H        -0.02740724216905      -1.65924705751834       1.27937544938344
H        -0.52542159564304      -2.06703921669330      -0.38629598447197
H         1.56332765802203       0.73609438116809      -1.25029139483483
H         1.15303095160178      -0.95862109825413      -1.51627397512226
H        -3.10420567870309       0.95088786756683      -1.59412903691853
H        -2.63544364333160       1.41287721485956       0.06136068145261
H        -2.21352173954923      -0.68514467830449       1.79592031381183
H        -2.41543770574192      -2.31099511268887       1.09297085220559
H        -1.01206159914860       1.17964513201290       1.52668344756068
H         0.57218372159574       0.54353373614355       1.91393140450426
H        -4.03309514090686      -0.59999384027237       0.16970019244677
H        -3.04020349709190      -1.42852118586774      -1.08164582791491
H         2.59130229640244       0.16922654657115       0.98522609097553
H         2.11386619233536      -1.55268775709055       0.77138529866196
H         0.62760556781327       2.96878735649712       1.69194460749353
H         1.62824170535225       2.28788693414706       0.38363004731532
H        -0.03476778249933       2.92817793688874       0.03686767149270
H         4.46655246766746      -1.19114473573945       0.16671624902304
H         3.51612765681256      -1.68566833405926      -1.28372350492478
H         3.99581339247541       0.04796913566577      -1.05725733289365
P         3.19040995065150      -5.43827270081724       1.13331444527422
F         2.39659499528954      -4.12602742969288       0.36187598288682
F         1.90499418087501      -6.45483050738511       0.61899129800883
F         4.06211858458791      -5.73160861705252      -0.31733389450428
F         3.94575174452597      -6.80839524999714       1.84271992328559
F         4.45443798664286      -4.40539887365967       1.66865270631364
F         2.35802199386145      -5.10737484008947       2.59910242845566
