22
C8H8F3NO2 optimized with ADF in AMS.
N        -1.21023221583518      -0.09885273583631       0.38944749534521
C        -0.59887137675654       1.05825475620439       0.02200491885229
C        -0.81674367369042      -1.28696429025199      -0.13173429898112
C        -2.50037361565533      -0.01873650551740       1.07636980704295
C         0.53550146091888       1.04143399495228      -0.74611750429750
C         0.38305010651901      -1.35542400751970      -0.85321892667514
C         1.05218312015447      -0.19554598843890      -1.17205766027237
H        -1.06657930126967       1.97431639181238       0.37543931805955
H        -1.32880368141740      -2.16917297613062       0.23539567686571
H        -2.75741660689903      -1.00693811020694       1.47205791025903
H        -2.43014833572271       0.70551884165632       1.89735823737829
H        -3.23505625206093       0.29412002693489       0.31316131532751
H         1.01274113256466       1.98224845204441      -1.01546764328169
H         0.73041647302735      -2.33116256672324      -1.19017820039333
H         1.96985082060419      -0.23252674136005      -1.76050891505490
C        -2.79539155162450      -0.63358755488175      -2.32796292633196
O        -2.26572247227688      -1.67693394980591      -1.82696723976784
O        -2.90946818585270       0.52064479343046      -1.87949384176746
C        -3.37552038957639      -0.90392864494443      -3.75729397426301
F        -4.08572665326554       0.14676436668448      -4.24402682706891
F        -4.20318421448462      -1.99247356653893      -3.76922723613358
F        -2.36097350610070      -1.15517922126344      -4.64611328204174
