34
C12H16F3NO2 optimized with ForceField in AMS.
N         1.72764938053197      -0.03268933762678      -0.39833708120143
C        -0.66633294490617       0.00581937453843       0.16925883885451
C        -2.09309667056371      -0.01536400989381      -0.39074934829797
C         0.37030719316019      -0.06681483646271      -0.95596518697808
C        -3.12765923075344       0.04057948501289       0.73914444559422
C        -4.54980069766280       0.03139801052678       0.18615846714295
C         2.36573975788378      -1.20309603513804      -0.08974324279674
C         2.34454248260832       1.17015322945689      -0.18581840753944
C         3.66202504678650      -1.18821775873938       0.43050119969468
C         3.64087002068020       1.22064011459750       0.33200280100531
C         4.30151531393380       0.03248578297448       0.63975368195778
H        -0.52239570810602      -0.86045747167118       0.85183184241719
H        -0.51028656288210       0.94158539511430       0.74970434657591
H        -2.24367248647318      -0.94622689697969      -0.98106535801293
H        -2.23608210426840       0.85808584483829      -1.06474442192834
H         0.21953530432020      -0.99977004022727      -1.54415384313743
H         0.22492493359071       0.78255136304894      -1.66072318799140
H        -2.98069041705625       0.96647362523192       1.33706199794146
H        -2.99728243690892      -0.83650043439821       1.41010685212647
H        -4.71577850942223       0.91484485439972      -0.46657631015681
H        -5.27528589655907       0.06947791559930       1.02595758648234
H        -4.73113341384913      -0.89596484296233      -0.39795539062039
H         1.87606486524984      -2.15637510254430      -0.24996017874241
H         1.83773702565863       2.09827491014195      -0.42251889304969
H         4.16624196982211      -2.11636211353936       0.66656229767913
H         4.12863397688998       2.17368301373490       0.49108028927090
H         5.30645696112877       0.05769039916337       1.04069366149124
C         3.31642433507202       0.35399903072681      -4.18806589728512
O         4.00130756900242       0.76051911164626      -5.11310385219158
O         2.96439191845499       1.12891593420639      -3.31409785904931
C         2.90542409896328      -1.08716526595926      -4.12090979849023
F         3.40320979953255      -1.65645247195618      -2.96433908163397
F         3.39594089839775      -1.78470947488113      -5.21104424778859
F         1.52572140444338      -1.17469457367949      -4.11446559634222
