41
C11H22F3NO3S optimized with ForceField in AMS.
N        -0.56455866716070       0.30638658796478       0.15001738874777
C        -1.55376739822236       1.24134859103680      -0.47491780388389
C        -0.90172523810735      -1.10827427134783      -0.19708024408858
C         0.77842084404519       0.66535006378269      -0.41726061042293
C        -3.02587829647855       0.90247856023244      -0.17362088382160
C        -2.35618121534452      -1.49325249896595       0.12911324412331
C        -3.33966604989249      -0.54252917574091      -0.54390140699636
C        -0.54658611774316       0.50091399947864       1.62591123175770
C         1.97710722840143      -0.15966158926721       0.11433413059747
C         3.28829976745047       0.31838277011364      -0.52189193036329
C         4.47833194725735      -0.48814309541132      -0.00964966095383
H        -1.44235216183220       1.23576651820907      -1.58448045767610
H        -1.36439403790730       2.28831000229158      -0.14424807723158
H        -0.24882412227587      -1.81864355788467       0.35478965766567
H        -0.73484131509582      -1.28903355363349      -1.28391762976203
H         0.99509287871047       1.74113907949196      -0.21894085356763
H         0.76406582566699       0.55270247569407      -1.52647755279501
H        -3.67861281038469       1.57367498322266      -0.77264592594255
H        -3.27206418911299       1.08949192869866       0.89179902360132
H        -2.52176730000906      -1.49911377283262       1.22725489253719
H        -2.54819213364652      -2.52500640038606      -0.23697887388882
H        -4.37392941748621      -0.79030440549634      -0.22066568416135
H        -3.28380485082234      -0.66626117232173      -1.64785632075335
H        -1.55295966240328       0.40864820681610       2.07705777758212
H         0.07668029339125      -0.26592613794600       2.13213576505477
H        -0.15592879776362       1.50813721691419       1.89262561551241
H         1.84551481488108      -1.23376834907393      -0.13087760989518
H         2.07278335799085      -0.04565271437240       1.21322229553419
H         3.45381155889823       1.39191285324559      -0.28421111921617
H         3.22943536916811       0.20876806927134      -1.62486085300866
H         4.36182796810473      -1.55992710917020      -0.27697522619441
H         4.56592613851169      -0.38973287728158       1.09311457201331
H         5.41229181898659      -0.10743566827992      -0.47066372317166
S         6.57589801506843       0.29008165813926      -3.57749046484994
O         6.54456113562881       1.34296603261807      -2.45998890698972
O         6.74310892434313      -1.03001814133813      -2.81060266109699
O         7.95907774279657       0.50005094649259      -4.21076836862645
C         5.18030541334089       0.34549126981948      -4.73811468546585
F         5.12635277353465       1.58926245116391      -5.33641110362401
F         4.00085652465219       0.11318126467611      -4.05955772237140
F         5.34693248445992      -0.62368593922332      -5.70790696810789
