71
C21H29F18N2P optimized with DFTB in AMS.
N         3.60383887368401       0.99385050121339      -2.01014152558893
N         3.80348968618053      -1.14288192851032      -2.18663228132638
C         2.11859722639622       2.59131603460024      -0.87582710402652
C         3.52629822553281       2.32519760256305      -1.41851513584242
C         3.21054061267882      -2.97532895451277      -0.64205053380278
C         4.04329466508601      -2.54747907967702      -1.84943531534183
C         1.75968041118536       1.65821986047649       0.28391362782114
C         1.71125270824927      -2.74550614333486      -0.85028437494585
C         0.37821766854779       1.97681705978736       0.86214523762457
C         0.92837315731262      -3.06042919410791       0.42807824705415
C         3.83805705358590      -0.12609424483940      -1.32943058271601
C         3.40799060197667       0.68667573511604      -3.32833108983800
C         3.53801295339379      -0.66249649801436      -3.43908355272693
C         0.05138417502706       1.03732530742991       2.02747864967581
C        -0.56811166194321      -2.79210225231376       0.24209288412644
C        -1.34626659908296       1.29975800648521       2.58394895433358
C        -1.34532555768246      -3.05878677050393       1.52993414733661
H         2.09091798160938       3.62992844716546      -0.53454017330509
H         1.39111729321185       2.48116449772294      -1.68625291019553
H         3.54911835450748      -2.42974621923767       0.24118152677859
H         3.40515620194123      -4.03702730577397      -0.46873119725033
H         3.78201245734983       3.04925157668472      -2.19537010904419
H         4.26911518460438       2.37918973159347      -0.61917490199306
H         5.10888777542162      -2.65999007683294      -1.62826304465779
H         3.79402968328808      -3.13987471063183      -2.73328953421630
H         2.51584895953676       1.74882772056665       1.06968228470237
H         1.76523484643199       0.62094997045018      -0.06836754877806
H         1.35104971525164      -3.37305083883628      -1.67281479723283
H         1.53689733227600      -1.69971006626750      -1.12889337533938
H         0.35599351333447       3.01505494849163       1.20939468801979
H        -0.37912831465536       1.86923026334963       0.07768882157639
H         1.31151588524142      -2.44053458670276       1.24567481741010
H         1.08332672333443      -4.10872282734097       0.70268121283814
H         4.05011716607846      -0.18296335595335      -0.27765571312405
H         3.20707539563611       1.43954456242764      -4.07013143410369
H         3.46719489537243      -1.30914407905259      -4.29602176125597
H         0.11658636821921      -0.00066425707461       1.68403183842889
H         0.79321947360180       1.17218416491791       2.82109681196846
H        -0.95676823641058      -3.43072120819656      -0.55846549931404
H        -0.71491615842041      -1.74945175712018      -0.06170463391852
H        -1.42712822196737       2.32484901808915       2.94778260860886
H        -2.10113626950906       1.14445292897349       1.81166771211152
H        -1.55085701832087       0.62008539070999       3.41120056154721
H        -2.40588764150805      -2.85982983921562       1.37478523601853
H        -0.98476152073977      -2.41497693212465       2.33328164218963
H        -1.22735166257265      -4.09801830569687       1.83908764843558
P         7.18384061579364      -1.10643466036453       0.99263015107051
F         8.03184446474393      -1.43672921997529      -0.41841521187565
F         8.59513088481485      -0.76285467583106       1.79368318228748
F         5.68186419223649      -1.42048299659034       0.18466809136967
C         7.03951991934656       0.73758323640535       0.30510990781115
C         7.29445054876455      -3.03265683858331       1.32032577268664
C         6.17418956833323      -0.66726582428135       2.66722340810927
C         7.24612857322835       0.96983194993756      -1.21655842613461
C         8.65205114576768      -3.61087427290905       1.79821710270397
C         4.63198382743803      -0.84282667733707       2.76664162235950
F         7.85595362355385       1.59065275742609       0.93178131105062
F         5.76513847089435       1.17473922021118       0.52640822754281
F         6.98941432267817      -3.65967305441157       0.16562904998582
F         6.36713944708018      -3.42056854082576       2.21466438121647
F         6.40538448500545       0.62660532416456       2.96777079954377
F         6.70462676913626      -1.39727856110381       3.66586254160658
F         6.78244323502566       2.18873607452014      -1.54796853798125
F         6.53824047012665       0.09665983794322      -1.94710551111093
F         8.51140783281634       0.90378111528377      -1.58545818936842
F         9.64278949726091      -3.24316898826509       0.99307642054084
F         8.93318417566585      -3.20488171696892       3.03133885961014
F         8.60468561104049      -4.94566773573305       1.80628482556063
F         3.99308443427294      -0.02367276456061       1.90996564168250
F         4.19818993358325      -0.54443667862683       3.98808227629010
F         4.22933548571942      -2.07879905876617       2.48184403222051
