52
C14H30F6NP optimized with ADF in AMS.
N         0.96402640161243       1.17851673174905      -0.30966030882612
C         2.15535781410788       1.83823535079158       0.41347307472786
C         0.23349370618394       2.33113877151088      -0.96955450992771
C         1.49028658389625       0.23236028786302      -1.38391747865747
C         0.08048005893240       0.45908100788954       0.68565065374824
C         2.27106081453956       3.25760239099218      -0.15808544876498
C         1.33489326232994       3.29386935550793      -1.37455812520441
C         2.10529293814108      -1.04282918305776      -0.82964782139672
C        -1.14667880500932      -0.20175110149338       0.08259147223649
C         3.18248604038896      -1.60580709533619      -1.75837064660972
C        -1.96976214514430      -0.88109174215924       1.18177978233589
C         3.84443660245193      -2.84496737363652      -1.15670330752913
C        -3.21646196546036      -1.58153333077205       0.64301794051975
C         4.97419921622369      -3.38560880571154      -2.02791687820099
C        -4.03915941265945      -2.24600498341851       1.74429871955655
H         3.04109104526820       1.21459594403136       0.25005174636696
H         1.95700010514679       1.81663907652705       1.49070286164051
H        -0.40555267212160       2.78158792167271      -0.19434926289444
H        -0.38978470118543       1.95316541346789      -1.78984997335486
H         2.24538497364379       0.81260436827036      -1.93478750300295
H         0.65153535894785       0.03043343869005      -2.06664864147073
H        -0.21260418068080       1.22584428509300       1.42052733466616
H         0.72491316732315      -0.26243988035814       1.20604874978443
H         3.31104382519033       3.49953717244112      -0.41490795584752
H         1.93422520861518       3.98995345588112       0.59256140250229
H         0.93270911958098       4.29721031704159      -1.57388746815379
H         1.84013756499166       2.94766608742718      -2.28958651892647
H         1.32179525204048      -1.80055486348049      -0.66150707312535
H         2.57996435484693      -0.84892014625873       0.14394660641291
H        -0.85148431979745      -0.95985414216086      -0.66225306487565
H        -1.78012576945247       0.53911692095503      -0.43617820908517
H         3.95521923277359      -0.82979133977404      -1.91118531361088
H         2.76123519439720      -1.84260338476465      -2.75446714167990
H        -2.26911047789883      -0.12810559018873       1.93396527694857
H        -1.33418875772818      -1.61313086086144       1.71156167029294
H         3.07950916006339      -3.62824233051557      -1.00540277250488
H         4.23173359603806      -2.58181594194550      -0.15752354141014
H        -2.91203507071293      -2.34028499884011      -0.10075136271343
H        -3.84221255758410      -0.84739409699956       0.10317959403693
H         5.44731895294879      -4.26418789142209      -1.56447427498108
H         4.60601173319343      -3.68330690259027      -3.02386595716728
H         5.75570824609106      -2.62169437813262      -2.16879725867271
H        -4.92735219507423      -2.74888550927293       1.33377125865641
H        -3.44211599146289      -3.00027141534697       2.28139686268999
H        -4.38290854225075      -1.50385859530781       2.48299663523692
P         4.28460603902188      -0.28139365742352       2.71947453178700
F         4.52582083253415      -0.11420798267191       1.05458384547092
F         4.45075923077102      -1.91025619324172       2.55280703959472
F         5.88956558871522      -0.09623739245913       2.96880219441328
F         3.99290826156878      -0.43206955808761       4.32252277849607
F         4.05276359075856       1.36407028306510       2.80886617836954
F         2.62624985464454      -0.44921577987814       2.40952843480318
