40
C12H22F3NO2 optimized with ForceField in AMS.
N        -1.45268315476081       0.43359173807228      -0.03485047280695
C        -1.77983559558872      -0.83157881117813      -0.75551413443848
C        -2.52623289586615       0.60261839083264       0.98431837120452
C        -0.12881521123088       0.34649813547759       0.65555292754999
C        -3.02794166554357      -1.43407358858345      -0.12881170003002
C        -3.68756919757347      -0.28411575688530       0.58336874804487
C        -1.48746373724278       1.58845114613869      -0.96951646478142
C         1.09364597562334       0.31091816424222      -0.29292894882233
C         2.36224773148448      -0.08883924185560       0.47141155585085
C         3.59280321982105      -0.06767959103069      -0.44217183999978
C         4.85197045971414      -0.46257464330131       0.32454959084989
H        -0.96229632571990      -1.58390053150473      -0.70621024095334
H        -1.98678757395507      -0.65578205002373      -1.83625894982037
H        -2.86609262782907       1.65889336764948       1.09199175079976
H        -2.19415078704881       0.27422067009265       1.99743683143152
H        -0.10759386380144      -0.56458732267677       1.29830255378366
H        -0.00095344502789       1.21830191169253       1.33821884391784
H        -2.73772351437538      -2.21363733469802       0.61074903977755
H        -3.70085160339266      -1.88168392466888      -0.89226135944034
H        -4.35720250466131       0.26122619246346      -0.11760989418019
H        -4.26879671217328      -0.62915568606467       1.46640719004240
H        -0.81402612136796       1.42722655402200      -1.83949513771339
H        -2.51232565972857       1.73961560982953      -1.37742891926641
H        -1.17841189843959       2.52590669926049      -0.45522840312403
H         0.93194812413008      -0.40771513148286      -1.12339509392367
H         1.24845973561102       1.32077491595810      -0.73077901330530
H         2.23315544314939      -1.11306164754637       0.88619143737783
H         2.51973472166263       0.61724340116939       1.31647921812486
H         3.73246798168869       0.95288568055069      -0.86052952668346
H         3.44673487234778      -0.77771625611948      -1.28527339774928
H         5.03158419318795       0.24484061777064       1.16218494860700
H         5.72773906397903      -0.43459476400254      -0.35737629768026
H         4.74997722613171      -1.49183734674558       0.72996964535262
C        -0.78834430973848      -4.26301073970344      -3.21761175293667
O        -1.14389461704905      -3.94875428231830      -2.09304094894024
O        -0.64701239385577      -5.44220915287194      -3.49774697946929
C        -0.52793489336126      -3.21275038883230      -4.25580202343073
F         0.77095784305433      -3.32908544309036      -4.71475195883086
F        -0.70485092723843      -1.94751529281059      -3.72540172568674
F        -1.40195117921531      -3.38447203682734      -5.31316413140157
