55
C15H20F18NP optimized with DFTB in AMS.
C         2.56381666395498      -0.92416350894970       1.39860182767482
C         1.77338528350970      -0.03963687630513       0.43612005382897
H         0.22962428579114      -2.26884477187660       0.15455415561397
H        -0.60484389624659      -1.94473432512251       1.69150410046739
H         1.94240948491720      -3.01715514806253       1.57779991942116
H         1.42478811642539      -1.99508445158960       2.91847214012892
H         2.91497368672249      -0.34723331819541       2.25640819224728
H         3.43567138463228      -1.34006064183671       0.89107871782490
H         2.00611947513432       1.02255463881437       0.51746690727779
H         1.91635619207240      -0.36261498994644      -0.59748509860957
H        -1.04124617710736       0.34413783953500       2.27176229690650
C        -0.01198806827708       0.54138255064661       1.98850765027828
H         0.64492250718636       0.26112704571210       2.80779767433369
H         0.11383681642905       1.59660133334730       1.75229032253872
C        -0.54604249317210       0.11276365519590      -0.36946414547999
H        -0.40805831306310       1.18823729040089      -0.51037518803720
H        -0.14699562122073      -0.40092039112524      -1.24856568502660
H        -2.27258977742431      -0.38821055643859       0.86299128693356
H        -4.27616880047345      -2.55066314898951      -1.41641611660587
C        -2.47241826595000      -1.45204539960262      -0.99424451709829
H        -2.22771535521651      -1.30073730965766      -2.05137652046998
H        -1.93455500524308      -2.33739354090337      -0.64462495970917
C        -3.97372543643057      -1.68101139867101      -0.83504332607766
H        -4.53422858000253      -0.81260918435681      -1.18392594073421
N         0.33383485343623      -0.26591796540434       0.78728222979191
C         0.28114276244339      -1.72848331661693       1.10122069964850
C         1.58305354854108      -2.02154101889332       1.83926950626312
H        -4.21855540574296      -1.86154644792870       0.21121771841763
C        -2.03269174958072      -0.22445922559664      -0.18726775187653
H        -2.61070350237786       0.64381152668742      -0.51839720454860
P        -2.84108337613880      -3.81326175556316       3.06614389622584
F        -4.23908570271410      -2.93399788273782       2.80292283124376
F        -2.26469416218375      -3.29488895357606       1.53742383815232
F        -3.33016345142597      -4.30502328344509       4.58975425141842
C        -2.20861594951090      -2.10307943671125       3.85678410289728
C        -3.81043386091681      -5.34507169496340       2.31453056356767
C        -1.08988323731531      -4.78423447216691       3.23904516499430
C        -2.87186226890035      -1.60711562327325       5.17021229474023
C        -3.84632887611362      -5.51803921794937       0.77337309579677
C        -0.66371031515783      -5.36573129176707       4.60901101377813
F        -2.44394023068847      -1.12138983172268       2.94256499530085
F        -0.87593348163006      -2.04043694330608       4.09574223323149
F        -5.09248837763798      -5.24558540504558       2.70110116864333
F        -3.34129263017579      -6.48794423281912       2.84422332936598
F        -0.07638127497330      -3.95722796078427       2.86075714472043
F        -1.06290612582873      -5.79278511411340       2.34933740415184
F        -2.49527714366366      -0.33562005799178       5.38708819947102
F        -2.47119728632868      -2.32452902720641       6.21152119422035
F        -4.19422289100523      -1.62953732107045       5.11594518783195
F        -4.45768937730826      -4.47560507613668       0.20634981375049
F        -2.62932894110713      -5.61515878853895       0.24237179457278
F        -4.52344175914141      -6.61612391942730       0.43901231315574
F         0.58120180316823      -5.84943720027140       4.54484350258751
F        -1.46602504668517      -6.34580236008586       4.99772419892165
F        -0.67682716668400      -4.41003334269694       5.53833690543647
