44
C12H23F6N2P optimized with DFTB in AMS.
N         1.32561663107445       1.90861541124943       0.33272602815975
N        -0.22225307052160       1.39445195904227      -1.07225338434353
C         2.66036608276224       2.06028455657335       0.91282274785454
C         2.73956886876365       1.42119308061076       2.30044705843528
C        -0.88097133159373       0.87071297067877      -2.26683677104581
C         2.53731678461200      -0.09926842731654       2.27700560781930
C        -1.73540121711606      -0.35380090056537      -1.93044787367180
C         1.09343585676104       1.44171290636154      -0.89006092891755
C         0.12895147496238       2.17123867889146       0.94642141878681
C        -0.84789022002986       1.84388531977605       0.06054304104219
C         3.79548842288504      -0.84714381870015       1.82488267103737
C        -0.89991905770349      -1.51133212223854      -1.37547470866658
C         3.57388851574696      -2.35760943459849       1.85568151650658
C        -1.77079494972431      -2.73177533424369      -1.08976694195924
H         2.88192219715087       3.13065933562306       0.97582991717942
H         3.36301606620136       1.58988209577611       0.21995003879164
H         3.72499418874436       1.65833989157333       2.71287677983957
H         1.99130628073764       1.88426404726168       2.95097597865619
H        -1.50237366976274       1.66681929813147      -2.68835857984934
H        -0.09549881392685       0.60792376475835      -2.97919073113136
H         1.70326968912230      -0.34755287308726       1.61304177193357
H         2.26466095752614      -0.42562378859380       3.28622591673986
H        -2.23245347462962      -0.66435580373943      -2.85440727881296
H        -2.51186663554986      -0.07079576388759      -1.21184229300819
H         1.84352929352575       1.16070989354179      -1.60765739030142
H         0.06304986235443       2.56693534256177       1.94431583002557
H        -1.91897906117714       1.89879737620901       0.14430327794625
H         4.63207119826291      -0.58235976860681       2.48140024386734
H         4.05575791405014      -0.54677378306814       0.80704912940445
H        -0.12285118498372      -1.77813534534898      -2.09617939739916
H        -0.40485484130087      -1.19237111794064      -0.45368376795819
H         2.74825386152955      -2.63018375586122       1.19857759636854
H         3.34397503611811      -2.69485333336459       2.86809430242673
H         4.47228219387418      -2.86835697253154       1.51052985994250
H        -2.53849490769005      -2.49472885213619      -0.35091949577339
H        -1.15159628041747      -3.53991933916540      -0.70155498502153
H        -2.26027958665190      -3.07663163121009      -2.00166268660129
P         3.00426461417350      -1.22149709208777      -2.07806413119052
F         4.08660292785927      -2.00603853650417      -1.14676966013004
F         3.97095500385076      -1.31121121008224      -3.37604407890903
F         2.24735477778721      -2.61287276567508      -2.46015720596314
F         1.86934443663446      -0.36873830152401      -2.98278373586915
F         1.98810541872479      -1.04350030526235      -0.74650927080768
F         3.69441422668382       0.24888426871989      -1.64899857133254
