45
C11H24F2N2O4S2 optimized with DFTB in AMS.
N         0.00368663756020       0.65188608599958       0.23454951333325
C        -1.03721895181840      -0.37505843628953      -0.09283192560800
C        -0.46063080632443       1.21811583214182       1.54845620788264
C         1.35047088424235       0.00638518160337       0.42524623770964
C        -1.39248047360447      -1.02231565159544       1.23981280090211
C        -1.15669450778822       0.07475912763727       2.28576632313877
C         0.02308674594591       1.70209838815604      -0.83457351129366
C         1.98413468426689      -0.54967888774353      -0.84599333611908
C         1.00653040116993       2.84132814616145      -0.57511263172110
C         3.24198648147902      -1.34424475251983      -0.46724907736421
C         0.89553979174973       3.87634732299259      -1.69235450595910
C         3.94532736423364      -1.88601784847143      -1.70869989461245
H        -1.89936741062967       0.14951163313865      -0.51189205981090
H        -0.65056049195229      -1.07517666393609      -0.83216448134634
H         0.39469790644517       1.60793901198889       2.09648434190988
H        -1.15774467564842       2.03028370313354       1.33234191517455
H         1.21180407637312      -0.78944442078182       1.15831532274541
H         2.00706152608357       0.75637638111298       0.86737193639906
H        -2.42930039271589      -1.36195229997722       1.22980368665758
H        -0.75322561345349      -1.88635507201963       1.43205172331762
H        -0.53125886287181      -0.29426299333521       3.09906851377611
H        -2.09856566564576       0.42660727383731       2.71048909200715
H         0.25364609709766       1.19972232008589      -1.77748486530851
H        -0.99348135468082       2.10103953198125      -0.90053835324943
H         1.29162204008596      -1.20735096593364      -1.38068102587909
H         2.26569542604960       0.26408602928997      -1.52023347912194
H         0.78616210175839       3.31412362153847       0.38371352616023
H         2.02959650798334       2.46364473783826      -0.53453939151930
H         3.92389837714071      -0.69575445178020       0.08914813781152
H         2.96068505850911      -2.17436254474488       0.18809135045121
H         1.13362590908031       3.42846614308152      -2.65811387048112
H        -0.11262205753327       4.29011732101068      -1.73832371067988
H         1.59632192948543       4.68836290536133      -1.50349193940003
H         4.83268270599205      -2.44556449928218      -1.41406839669496
H         3.28433088223158      -2.55041340285210      -2.26747758242696
H         4.25142996166416      -1.06869220864738      -2.36307482473058
N         3.36767223652010       1.65310447001938       4.17986439463314
S         2.61901888047582       2.79980954055396       3.38322862841170
S         3.05357218705337       0.17140581998180       3.71539339584453
F         1.06628188134959       2.69161036758725       3.89991064630221
F         3.80225895450864       0.05068191993759       2.25919691177616
O         3.06276017610781       4.06238805518530       3.85891839836174
O         2.47770446593628       2.60860514910263       1.96108590601044
O         1.68420051063986      -0.12274488647621       3.37707307959527
O         3.75890954824761      -0.73553972687240       4.55058622001474
