32
C10H19ClN2 optimized with DFTB in AMS.
N         0.24503439598325      -1.58520419224543       0.21718146270810
N        -1.71587354708989      -0.69455353760956       0.14671731950518
C         1.64642834517766      -1.82075340783144       0.54812371073841
C         2.55013659163827      -0.84266162699953      -0.21446798526590
C        -2.83742383415286       0.20396491286606       0.39867734629466
C        -0.55202962289862      -0.68763937850669       0.79522551280228
C         2.57055548995571       0.54729043241742       0.42515235909914
C        -0.40042629230359      -2.12789554798046      -0.85739409559939
C        -1.63680740007970      -1.56599743514948      -0.90193136653858
C        -2.65153595685447       1.53617462070572      -0.34033606846661
C         3.35898264212629       1.53074965836013      -0.43660252739543
C        -1.64102870091006       2.44894764760040       0.34571018037903
H         1.76506297739301      -1.71143264824952       1.63037276916000
H         1.87567081269120      -2.85225816864656       0.26811444470848
H         2.19260776019460      -0.76281769846514      -1.24411387686635
H         3.56012094557340      -1.26304094044932      -0.22722458997056
H        -2.91304518399844       0.35862923182521       1.47944583022789
H        -3.74066152529805      -0.30219211299984       0.04850817336302
H        -0.32024234439959      -0.10705343804372       1.67017804185420
H         1.54393482700758       0.91224708955987       0.52194367925864
H         3.00742378430087       0.48569374914201       1.42915293792306
H         0.06918404240327      -2.84894875305458      -1.50246237723374
H        -2.44862631248550      -1.70528909999446      -1.59331688771661
H        -2.31773135191628       1.33288317261757      -1.36100924832856
H        -3.62902338445602       2.02582248250386      -0.38024693170408
H         4.37918304731834       1.17616196515707      -0.59179127180357
H         3.39679442388540       2.50388773677169       0.05310620437524
H         2.87076568706499       1.64431758879073      -1.40409407190708
H        -0.64851259543422       2.00143656121800       0.31771446972620
H        -1.92368664313554       2.63663211773424       1.38342447696754
H        -1.59741651926048       3.39944167344782      -0.18456961904915
Cl        0.16081217875944       0.71018385330794      -1.92806775794546
