25
C7H16ClN optimized with ADF in AMS.
N         0.20265083974566       0.21026829348120       0.00970200516831
C        -0.45864750527054      -1.14013545603035      -0.15832091642432
C        -0.86691852945997       1.02884666253722       0.73214288111684
C        -1.90521389318571      -0.81873740837881      -0.52228402880437
C        -2.19033389256310       0.55347889164248       0.13797006380704
C         1.44544517102834       0.14443047747838       0.85766795786556
C         0.50329633609449       0.81298023130838      -1.33307061567725
C         2.57697823045730      -0.67042322760755       0.26333851650340
H        -0.39391961743285      -1.63874515768320       0.82162096791668
H         0.08552550134284      -1.72716720975036      -0.91008683408625
H        -0.70888858554351       2.10858847697123       0.49080382553171
H        -0.75799775593895       0.78926570424310       1.80088483253220
H        -2.56869067165455      -1.61598026629118      -0.15720097638435
H        -2.03047724812187      -0.76293814557441      -1.61385706108278
H        -2.50562811428687       1.31011329292362      -0.60218881483842
H        -2.96003127137933       0.48692718044454       0.91960988811827
H         1.74654834052465       1.18984995455940       1.02402156814286
H         1.12593790907419      -0.27839468444342       1.82229977663339
H         1.11791031602985       0.10692189734195      -1.90652509624728
H        -0.44067675760604       1.05935498000652      -1.83501567941771
H         0.99084837625723       1.78416595311832      -1.17869699213027
H         3.39592780691661      -0.70671877474659       0.99784388850857
H         2.27485951708986      -1.70717636586465       0.05538866871548
H         2.97727609701847      -0.22078944604127      -0.65521014345959
Cl       -1.13429185283621       3.52653282805544      -1.18312037640771
