37
C9H20F6NP optimized with DFTB in AMS.
C         2.93166505062945       0.10975972882622       1.54145175529852
C         2.14229741736810       1.08723651211091       0.67856357361302
H         1.43644211363254      -1.19945555280501      -0.69922649946591
H         0.24892082536446      -1.60837821136581       0.57058765317397
H         3.00677944937577      -1.94651610036862       0.82688461725222
H         1.94517858957931      -1.70943021028847       2.22600572038613
H         2.87774463469645       0.38020458902665       2.59863109647981
H         3.97820387594118       0.11765625299594       1.23460751870356
H         1.99431428390759       2.06436866690706       1.13951369493893
H         2.61637734756729       1.20695747095896      -0.29605223381092
H        -0.97302150220767       0.09098857890894       1.54094526997170
C        -0.06071936937385       0.67572193843105       1.63405947573333
H         0.47304172642467       0.37028903033294       2.53131935299695
H        -0.30283087432582       1.73562872900539       1.69102061952149
C         0.19641126048294       1.02794042664468      -0.79218440551772
H         0.16937156265213       2.10771985824361      -0.62142973761128
H         0.89129936082772       0.82122515139070      -1.60714175285400
H        -1.87524721814827       0.55537913380419      -0.30627208930123
H        -2.62531640711043      -2.04629011742444      -2.97727307222805
C        -1.24580509276141      -0.82854195626488      -1.85487157750273
H        -0.45999506838829      -0.88039040368292      -2.61311430165987
H        -1.06499768507017      -1.62249997120044      -1.12488092049272
C        -2.60513649238613      -1.06125054679041      -2.51179677126482
H        -2.79235764666265      -0.31030592555037      -3.28005206485490
N         0.80568415312871       0.43970652769550       0.45181920994098
C         1.13213451090154      -1.01699925041627       0.33104243536451
C         2.29340515685482      -1.26431288949370       1.29111781838311
H        -3.40483303141994      -1.00920548208485      -1.77117741320716
C        -1.20293820595981       0.54311566340110      -1.16906294103857
H        -1.58091239404267       1.28893394193398      -1.87688736348760
P         3.40800768274201      -0.27114440642840      -2.82349155162454
F         4.92695416982791       0.30062992624980      -2.87944534851412
F         3.88825560537357      -1.77294102107434      -3.21688607644334
F         3.60832861758477      -0.64000956014026      -1.19201962787346
F         1.81844041735329      -0.82231740925701      -2.68315121392354
F         2.85211130875377       1.24174175555535      -2.34546264194215
F         3.13284731978710       0.11639223761322      -4.37553435713962
