43
C13H28ClN optimized with ADF in AMS.
N        -0.61109033853562       0.48400455792115      -0.21031476870094
C        -1.65691960252290       0.19653922886873      -1.26521156580403
C        -1.13760926275229       1.54463834422700       0.75158921669623
C         0.60530093365181       1.03640813512508      -0.93066444437022
C        -0.25460598039880      -0.76374068684065       0.58482351169408
C        -3.00255007537050      -0.20521373706736      -0.68306973724011
C        -2.47931720779427       1.16609677257762       1.35069520572748
C        -3.52621483898057       0.85674564593592       0.28335522671324
C         1.80523805956648       1.34458077221620      -0.05857705296322
C         0.45350862555753      -1.85115731652854      -0.19881637186211
C         2.95750861246592       1.87128854849567      -0.91300063413369
C         0.71233938691228      -3.04812076858031       0.72152963525015
C         4.18487038022031       2.18159136087408      -0.05923742735964
C         1.45880724821475      -4.17108366512858       0.00888778846187
H        -1.24666152035175      -0.57956345107856      -1.92645997305865
H        -1.75787107999152       1.12675074344518      -1.84833288925197
H        -1.21763397603630       2.46831012262339       0.15363491202100
H        -0.37629867531937       1.63735606840509       1.56181842445537
H         0.25162785684189       1.94799528503495      -1.44017261354441
H         0.85995552756038       0.29856370721275      -1.70800714203590
H        -1.19930331830862      -1.14967849238966       0.98660649750648
H         0.33843461853129      -0.39939100266142       1.46003404502181
H        -2.92236398016739      -1.18104394228745      -0.17542518531176
H        -3.69620757313101      -0.35079894831171      -1.52847741329825
H        -2.79308419895552       2.01414523956813       1.98145628058124
H        -2.34476063132282       0.31964299848864       2.04444434170944
H        -3.75217135415207       1.77860852960147      -0.28433469338422
H        -4.47040765824420       0.52240240742739       0.74200462985838
H         2.12995936362469       0.45339126918093       0.49997885366783
H         1.54960616084970       2.06992488644893       0.72949867556401
H         1.42415849033732      -1.49338175069557      -0.58093428649095
H        -0.13640770761869      -2.19269195774433      -1.06968561676578
H         2.63757839414036       2.78266985171469      -1.45131077552268
H         3.21982756698300       1.12615922741946      -1.68751056044143
H        -0.25144775793775      -3.42506192877930       1.10796646861744
H         1.28439388973487      -2.70114537852572       1.59877468893263
H         4.52389686537385       1.28145383985808       0.47554746536082
H         3.94723908107367       2.93994938481511       0.70192096326028
H         5.01785628303717       2.55402194552099      -0.67334938572115
H         2.43556956612715      -3.82043920621877      -0.36069354955349
H         0.88532042803464      -4.54254259531692      -0.85564696668156
H         1.64076144617162      -5.02076527972895       0.68345453080944
Cl        0.99311907808126       0.85595855427719       3.16852807858695
