37
C9H17F2N3O4S2 optimized with ADF in AMS.
N        -0.80943007666179      -1.09885548283115      -0.77725195372177
N        -2.52106174791154       0.23601807714203      -0.78829766709804
C         0.24751462969440      -1.99289610790407      -0.29408817800351
C         1.62008036027153      -1.33570078679043      -0.38119746365908
C         1.75091927385409      -0.09535513773855       0.50087689170090
C        -1.62726201376163      -0.37783688276682      -0.00174163544922
C        -1.19219759370399      -0.94603065478357      -2.09056784762704
C        -2.26681015302683      -0.10702965224949      -2.09963604822722
C        -3.67269354658667       1.01818836640195      -0.31504972884066
C         3.12705030658311       0.55697193036121       0.39957636663739
C        -3.62243570683511       2.45632247502107      -0.80005528066675
H        -0.02317372312200      -2.26728202657532       0.73602240985249
H         0.17677596466507      -2.91038346027010      -0.89697067684828
H         1.83810019858728      -1.07399791365301      -1.43312926326611
H         2.36933104541455      -2.09076326714309      -0.08355652709546
H         0.97866245554032       0.64135153261863       0.21416488675072
H         1.54483317694883      -0.37752300959019       1.55020906806939
H        -1.61574349615780      -0.36068280431227       1.08077211966152
H        -0.72640903082956      -1.50394594658496      -2.89293825115700
H        -4.56987584287443       0.48375380745001      -0.66099222392837
H        -3.66565110428992       0.95003838013593       0.78122170176422
H        -2.91060444052767       0.20430100314700      -2.91160100472498
H         3.33613138812705       0.87519754428089      -0.63412028621263
H         3.92081474206244      -0.14355186230926       0.70320718949370
H         3.19593550040283       1.44525669415831       1.04549066455863
H        -2.71792785797537       2.96760719288848      -0.43942702990497
H        -4.50271457885785       2.99585728776165      -0.42160686986852
H        -3.64260557483047       2.51420160040101      -1.89824962769889
N        -3.04892330938034      -3.02338164118439      -0.60373915133948
S        -4.13325589716926      -3.14192661052216      -1.78622645052898
S        -3.44828788868227      -2.79719952939316       0.93103808063619
F        -4.78499624929224      -1.58572824217779      -1.87125772611668
F        -4.26460515902763      -4.14397782217540       1.37148119153913
O        -3.38959267840154      -3.24901289334095      -3.02814723970006
O        -5.28960648888148      -3.96715078009791      -1.51546104332266
O        -4.37404721420070      -1.70103506513014       1.18243934566590
O        -2.20856944706341      -2.84764065884401       1.69850630687615
