52
C16H33NO2 optimized with ForceField in AMS.
N        -0.06792519324657       1.47951683131276       0.01004996095272
C         0.54140350692156       2.40747330940057       1.01283320124960
C        -0.75165983368205       2.37040519181835      -0.97696624146628
C         1.00559201194310       0.69651244552067      -0.68529808949624
C        -1.07007961127322       0.59691607944440       0.69182648719533
C         0.02631996431560       3.80867657605856       0.74345962095832
C        -0.29902985516637       3.79512819214269      -0.72344039490199
C         1.76239261048710      -0.30009673469849       0.22636475647462
C        -1.76201501815347      -0.42788931986029      -0.23956420410900
C         2.98139947122693      -0.88507217686448      -0.49652024760796
C        -2.87105832631323      -1.17882629874045       0.50738653604040
C         3.71943972501934      -1.89208284795746       0.39339945024173
C        -3.57648366849165      -2.18199293624967      -0.41278082225856
C         4.92569066505975      -2.48408267220354      -0.32927306318016
C        -4.65130229803987      -2.95854384013321       0.34214089258173
H         1.65085950217932       2.45014112517340       0.92654477617777
H         0.32338490936556       2.12307837295280       2.06797446551154
H        -1.85977485658541       2.35925267640141      -0.85684057534705
H        -0.54952412900097       2.09220872165067      -2.03689635018708
H         1.74507630212285       1.40017567235963      -1.13486618286770
H         0.58374953412601       0.12963549126439      -1.54467116159747
H        -1.85698407916684       1.22818534837480       1.16747570411708
H        -0.59426297317386       0.04166730035505       1.53046510683157
H         0.78555221001806       4.58427853826156       0.98635493868918
H        -0.89850357241452       3.99141720214005       1.33463279391967
H        -1.09242882605477       4.53350707232009      -0.97276591003012
H         0.61645269486437       4.01281067509371      -1.31720508802220
H         1.09111330550096      -1.13818456186547       0.50855206672576
H         2.10228842667184       0.19956331855673       1.15766436785997
H        -1.02493846527305      -1.17441754112007      -0.60161685925922
H        -2.20214903322224       0.08211460163091      -1.12196460295142
H         3.67645082919716      -0.06132688966318      -0.77192136185301
H         2.64664582382176      -1.39265530994109      -1.42824798676681
H        -3.61740139493544      -0.44944453360097       0.89260851233270
H        -2.42683606651459      -1.72029594619849       1.37191639946991
H         3.03072845164917      -2.71745781298796       0.67833963632833
H         4.06767586099703      -1.38756693621245       1.32125660960349
H        -2.83559665097543      -2.90196925951053      -0.82436608177651
H        -4.05133733454302      -1.64149809064006      -1.26076198152278
H         5.43820283713201      -3.21042042703399       0.33606318437305
H         4.60176237616305      -3.01371534890250      -1.25061696640936
H         5.64472420616166      -1.68192048282059      -0.60061591978470
H        -5.15259472840495      -3.66812023335263      -0.34929426057620
H        -4.19608260658615      -3.53610062632451       1.17494168596910
H        -5.41426570468391      -2.26297268055107       0.75228630666867
C         3.82415452495411       3.75219143369186       2.76115657140607
C         4.71603827166328       4.88560979331351       3.15788967706667
O         5.80017083618739       5.02624968849478       2.61565630648596
O         4.36427406337054       5.67343369748350       4.02086469746064
H         3.57079833525483       3.84064654982428       1.68416567760349
H         4.34570958451738       2.78753233501629       2.93610799464484
H         2.88428349740984       3.76516449297573       3.35406211593189
