32
C10H15F3N2O2 optimized with ADF in AMS.
N        -1.64104250137886      -1.04946984527404       0.48913182579339
N         0.27234070113876      -0.46095593251591      -0.32739193111591
C        -3.09957383762344      -1.14078103890329       0.63731147126260
C        -3.71537884032440       0.21042103881005       0.97863935948984
C        -1.04026448740716      -0.18909568557064      -0.34581335721777
C        -0.69545009719390      -1.89465888827089       1.03850376524712
C         1.22975170749175       0.13631106165351      -1.26983741442711
C         0.51185152290976      -1.52744586145708       0.51995064990765
C        -3.17854844474452       0.79139951662901       2.28308987228450
C         1.54722679164633      -0.83582137449805      -2.39668712350848
H        -3.28901323071878      -1.87420384409545       1.43552738485933
H        -3.49244595589416      -1.53241856448170      -0.31536698223723
H        -3.54654615607897       0.90498779994254       0.13764846286707
H        -4.80692519428433       0.06254805482692       1.03999918659748
H        -1.52324739928474       0.56992655881397      -1.00587449695876
H        -0.95873958737499      -2.67089354648105       1.74613017448262
H         0.74733553711389       1.04489550085948      -1.65950446961741
H         2.12336353847435       0.43149145820297      -0.69832242720483
H         1.50548615672322      -1.92381335062821       0.68614348180402
H        -2.08852623912072       0.94027182394386       2.23399918895403
H        -3.39045684662260       0.12267833936714       3.13330449325475
H        -3.63814092405794       1.76723703986870       2.49631866476709
H         2.06752328159742      -1.72891663706457      -2.01856250260648
H         2.19511875036248      -0.34192711030036      -3.13474951075227
H         0.61374337002767      -1.14416563188493      -2.89140404607414
C        -1.78117455548021       0.36913282227943      -3.20737998416359
O        -1.94645750887001       1.39223911299749      -2.48267202457284
O        -1.77967381432115      -0.84301699369922      -2.89038379027476
C        -1.46972024823612       0.70414019810345      -4.70454519729050
F        -1.35241959283027      -0.40014602909457      -5.49251671079853
F        -0.27554601729833       1.38571410370675      -4.80242596769121
F        -2.43118850674006       1.49842494651466      -5.25947327385964
