29
C9H13F3N2O2 optimized with DFTB in AMS.
N         0.68876919782518       0.67585802850017      -0.20822193976207
N        -1.43295138813486       0.38887136456231       0.02379698325725
C        -0.34696994810116      -0.05980633419644      -0.60113367432539
C         2.01455521731290       0.69100841949232      -0.82866992723250
C        -2.80082834089936      -0.00627021205340      -0.30600738823704
C         0.25009784434667       1.62903932217449       0.67119956127328
C        -1.08780783988301       1.45005017002223       0.81535234061930
C         2.29767200385895      -0.58435997418860      -1.60328747617228
C        -3.58410506812506      -0.38270982573016       0.94234085968001
H        -0.33117174202834      -0.85798917900345      -1.32170545349048
H         2.01689561950455       1.54522929454049      -1.51432038285510
H         2.75166320234064       0.85320185870059      -0.03654080159519
H        -3.25329026185278       0.84351728331234      -0.82909845741746
H        -2.73998153478034      -0.84938312790301      -0.99749269689360
H         0.91605890018028       2.35310509752060       1.10662388074572
H        -1.81161586239013       1.99639400237601       1.39319593332774
H         2.15731349863241      -1.46657326047394      -0.97867115420421
H         3.33043581658692      -0.55762565313568      -1.94887484943750
H         1.64377694905928      -0.64248902206249      -2.47309900259954
H        -3.08771824368779      -1.19371594916291       1.47536438620672
H        -4.57944867538482      -0.71217838633750       0.64776180588855
H        -3.68388783986342       0.47020884207577       1.61274012125373
C        -1.02657614457221       1.43051288893169      -2.81657200406684
O         0.17664144319402       1.23731946620879      -2.97947737734084
O        -1.66433301019761       2.17592799578206      -2.08627881944963
C        -1.95674142334939       0.36234538248216      -3.63062419879719
F        -1.70199262161432      -0.88750740474306      -3.12116989092577
F        -1.74755962164045       0.28308217355933      -4.94654896612648
F        -3.27383001673675       0.55823107764926      -3.43966295372316
