64
C18H26F18NP optimized with DFTB in AMS.
N        -1.43601627151775       0.97659580133125       0.44893560604745
C        -1.54045318494917       2.42243420023041       0.05996029680279
C        -2.20179453130938       0.71551055220656       1.71861815556030
C         0.00414328278097       0.63444642302264       0.75128204781245
C        -2.97369772776288       2.93348432530946       0.01077534203897
C        -3.64161837257186       1.20601910185216       1.66993654343880
C        -3.67998650386496       2.69644638127680       1.34233029941947
C        -1.93960652387503       0.10244563497572      -0.64069655575855
C         0.99640007818548       0.89863558360542      -0.37577956245757
C         2.40552928039605       0.55862092636190       0.12866055873637
C         3.46117163348961       0.88024857725567      -0.93185999437346
C         4.86980057037657       0.57779195552628      -0.41100658190807
C         5.93206567499977       0.90233519027592      -1.45955136891261
H        -1.06601067922338       2.53533841413112      -0.91621904010540
H        -0.97425457088838       2.98724985896706       0.79973599928106
H        -1.67211726437381       1.23427066893279       2.51834915386528
H        -2.15716758443628      -0.35990546620012       1.90457657410213
H         0.28471680643398       1.22912976754289       1.61977861025323
H         0.01974267468584      -0.42174503489447       1.03296220811493
H        -2.92245104457740       4.00538094245158      -0.19718077052370
H        -3.52989404243834       2.45940756192292      -0.80393986121883
H        -4.22807622238155       0.63952248074151       0.94015397396835
H        -4.07533804971105       1.02830053243760       2.65723525014066
H        -3.17455120878712       3.25997932766611       2.13182502336275
H        -4.71528691615730       3.03888620995529       1.28082468889635
H        -1.39092787597975       0.31795071175125      -1.55481988245156
H        -1.79060334893719      -0.93749351842626      -0.35539486411617
H        -2.99805948035771       0.29047523270393      -0.80190174715313
H         0.76362735442211       0.29493318689982      -1.25815586118953
H         0.97360987827515       1.95243983483801      -0.66265788184320
H         2.60957547758231       1.13882806645063       1.03300981591251
H         2.45366606333858      -0.50345858460428       0.39138721854364
H         3.39198505594654       1.93940362128966      -1.20187336397757
H         3.26698395010695       0.29108604548785      -1.83541322726982
H         4.93755086020276      -0.48077267727225      -0.13791010342459
H         5.05601155843155       1.16906012947319       0.49120907816230
H         5.77276033158355       0.31120303692826      -2.36278911012478
H         5.89545561033227       1.95953702661007      -1.72574119226962
H         6.92398245444350       0.67719709504481      -1.06748189179621
P         0.89832973131644       3.43759210054692       3.71314525599866
F        -0.52802622023751       2.95464613496227       2.85988627904732
F         1.71061494303498       2.16571379691168       2.92769799730218
F         0.06499632154506       4.67952635172346       4.47119301135762
C         1.13772475035236       4.57953651744375       2.11854238334299
C         0.22071421734476       2.22277969272009       5.10799118379500
C         2.61885699399507       3.86074294570940       4.60023183449054
C         0.05805481731665       5.65588232098461       1.80679163136790
C         0.52846793800984       0.70800582833230       4.97339903113074
C         2.73668069352874       5.17456554819223       5.41429319766063
F         1.14341480837560       3.76908955878987       1.02645888853478
F         2.30206926607024       5.24351215161367       2.11405876288309
F        -1.12697192753505       2.29876614608344       5.11787930427701
F         0.62996109683266       2.61791872604044       6.32244308848421
F         3.59631060005135       3.87494438826072       3.67625229824571
F         2.90878204653636       2.84356880383218       5.43473804248544
F         0.31398026734542       6.19657114431686       0.60982423147218
F         0.04664954423756       6.63004121294334       2.70079234289531
F        -1.17317373971155       5.13342016551693       1.73377176184486
F         0.00408209537254       0.24286544958308       3.81971744794849
F         1.82140164094080       0.42945300481184       4.97052424570056
F        -0.04245942614387       0.02051830873476       5.96130155332415
F         3.99163847795785       5.37744966233570       5.81289051705661
F         1.96154156784843       5.13532843045481       6.49228261427848
F         2.36815951090198       6.21595007479658       4.66905776659004
