37
C9H20F6NP optimized with ADF in AMS.
N         0.17488064015713      -0.28239494265448       0.32510391154068
C        -0.32648457372601      -1.58714357356444      -0.28106654536896
C        -0.43145203885150      -0.31442886120342       1.72140888604355
C        -1.74302253306135      -1.77894567980648       0.26194861032632
C        -1.81946402979763      -0.92683023467237       1.55386980308546
C         1.68528871699102      -0.26690074129123       0.42692465824025
C        -0.36617051788204       0.87736807395159      -0.48089914233006
C         2.41429363673518      -0.35138912995510      -0.90362092707569
C         0.10356292771378       2.24580675965854      -0.02904502739671
C         3.89901226142908      -0.62206331502674      -0.65030450554359
H         0.34867868183944      -2.37143107542444       0.08855846980622
H        -0.26725293687360      -1.51346702791764      -1.37438225975531
H        -0.41899786676866       0.69891687608744       2.14153016734743
H         0.22013019995205      -0.97248186044793       2.31300101156631
H        -1.89356859157055      -2.84508586795642       0.48009434944500
H        -2.50689006380682      -1.46682564852145      -0.46613135143239
H        -2.60266941849774      -0.15698627897242       1.47795809307670
H        -2.04041597838822      -1.55004926905132       2.43162546335539
H         1.93949462391036      -1.13201684598740       1.05345744916504
H         1.95693685249564       0.64361450569377       0.98127109101527
H        -0.06820436127540       0.69377263603091      -1.52313657583416
H        -1.46165222703489       0.79991589777268      -0.42716565739344
H         2.00572191327152      -1.18118557334050      -1.50198987173050
H         2.29284346545601       0.57521670820792      -1.49115863700955
H        -0.13115971144742       2.44849498443009       1.02487697601931
H         1.18188271453372       2.38574903491105      -0.18363379394497
H        -0.41896411894844       3.00410142094507      -0.63209854340899
H         4.35251348861872       0.16919545360878      -0.03431257955447
H         4.02553554844058      -1.58008860350278      -0.12436264567962
H         4.44971815021901      -0.67077814052932      -1.60049145384784
P         1.60204695243577      -3.78075851962992       2.56305804973195
F         1.88023195886808      -2.17181666822571       2.98587885298540
F         2.01488684087588      -3.37213591368410       0.97486171254032
F         3.16856431412847      -4.12906531295643       2.87389131457496
F         1.29347411820467      -5.31271707006600       2.08214790079811
F         1.16018642532823      -4.10846622865636       4.10235451908044
F         0.01452359462591      -3.35116151245346       2.20122677736213
