36
C10H17F3N2O3S optimized with ForceField in AMS.
N         1.02765762891590       0.32787856621335       0.45074995430933
N        -1.00513584902655       0.34365549580292      -0.45069989081294
C         2.27562092251115      -0.15274951618224       1.04037162807066
C        -2.26123700379363      -0.11903367080059      -1.03741143504839
C        -0.00180206994525      -0.42447349986799       0.01627418358290
C         3.45475727678390       0.05499086930461       0.08353092319302
C        -3.43486679765617       0.10354646306693      -0.07735708922853
C         0.66535228383113       1.61129210556212       0.25057683279142
C        -0.59702880773456       1.62127638047777      -0.30786610430072
C         3.29973810618976      -0.76198642053185      -1.19843735078511
C        -3.29456151116067      -0.72708610146062       1.19752969719632
H         2.18915232464370      -1.23302109047786       1.29164546219893
H         2.46704986598848       0.39553157846397       1.98807362164401
H        -2.18977948539419      -1.19988199098603      -1.29092723817856
H        -2.44823854138818       0.43217766120867      -1.98437797045486
H        -0.01961821697040      -1.50731664512186       0.03702874041092
H         3.55024106592168       1.13236676461102      -0.17212616879209
H         4.38931554383775      -0.25963642788644       0.59617295414495
H        -3.50951987097607       1.18043303655173       0.18712000703890
H        -4.37569132776724      -0.18950455293202      -0.59150122577508
H         1.27336953122101       2.47393400286427       0.49112902863101
H        -1.16939513748257       2.49349510779200      -0.59620822067343
H         2.43354434758368      -0.39575360275627      -1.78917455254223
H         3.15145417002276      -1.83652112545829      -0.95822011272680
H         4.21563473485750      -0.66012857287964      -1.81746659037383
H        -2.42732886686089      -0.37536970405554       1.79539841531664
H        -3.15666588367094      -1.80099077191295       0.94822531513572
H        -4.21229082280048      -0.62156542110462       1.81328054692822
S         2.00365065305711       5.73118807155882       2.11594738630310
O         2.76185886713617       4.56700435221015       2.77074876017500
O         2.55823390675496       5.74705772814178       0.68379401220196
O         2.65003941730080       6.97026784134243       2.75330831211545
C         0.19503619410651       5.65010082855860       2.24627221884908
F        -0.17143284404384       5.64086674945837       3.57843960641309
F        -0.26141484953939       4.49777570158483       1.63654609762210
F        -0.36205466315293       6.75060706194051       1.62368404601982
