45
C11H24F2N2O4S2 optimized with ForceField in AMS.
N        -1.38030953035158       0.17631188190509      -0.05667386967092
C        -1.65366764224743      -1.00684937839120      -0.93014098523149
C        -2.47812309335645       0.17106479345135       0.95833564299138
C        -0.06065928541318       0.01455835313338       0.63659900648268
C        -3.02057730463544      -1.56015039431685      -0.57228090719916
C        -3.20850529910917      -1.15388470891286       0.86208505663903
C        -1.44284222661436       1.42855815718926      -0.87667004288730
C         1.17020134541046       0.02650495138858      -0.30401593770223
C        -1.16744100172003       2.72399739300198      -0.09221241148134
C         2.44146091109744      -0.35528894142396       0.46562211348477
C         3.67469391192909      -0.33129431535617      -0.44495840041787
C         4.93477394168583      -0.70911043269948       0.32917897714871
H        -1.61693302985844      -0.76909089557065      -2.01809847134397
H        -0.92157290922264      -1.83077601787894      -0.76587279522407
H        -2.11568320361222       0.32816149586483       2.00003054903477
H        -3.23323026579201       0.96804249097337       0.76644824488094
H         0.07940824905108       0.81271732944842       1.39896212003597
H        -0.05981088579387      -0.94281361898123       1.20827711103273
H        -3.79974447860304      -1.08224703136461      -1.20652537137544
H        -3.06715139436897      -2.66489169903973      -0.69042732961873
H        -2.72887978595646      -1.89962499909305       1.53403922545929
H        -4.28575695394162      -1.05502089941914       1.11972202133370
H        -2.44929276553459       1.52310435815166      -1.34529495426052
H        -0.72449310375486       1.38042034050975      -1.72171980315510
H         1.31237423384348       1.04198279623036      -0.72983110331005
H         1.03155422706186      -0.68490843207504      -1.14491865146058
H        -1.82157508364457       2.81182546156278       0.79863605829363
H        -0.10672137762674       2.78432075855690       0.22454890758830
H        -1.36694691676345       3.59548065332482      -0.75080806910237
H         2.32186436644299      -1.37631053689478       0.89083792349779
H         2.59067841835335       0.36089553361696       1.30380533634263
H         3.53820213878865      -1.05028089698699      -1.28209017742721
H         3.80713861048615       0.68660191440128      -0.87215266522909
H         5.81281837890071      -0.67692729837262      -0.34969601849090
H         5.10420696037603       0.00511090982020       1.16317703007040
H         4.84112164741716      -1.73686863467527       0.74063811009267
N        -1.30067577852674      -0.61780814947478      -5.28058318566977
S        -1.34390486855576       0.99224678461891      -4.99332614583937
S        -2.32052410530831      -1.31441529256850      -6.35354785104190
F        -2.66891530618471       1.34196874442119      -4.03257399264205
F        -1.86414421211086      -0.88472540342090      -7.90586871870444
O        -0.08604650361909       1.41016996299741      -4.28763506918838
O        -1.47118373280899       1.74396476695270      -6.28841733729969
O        -3.72492144990723      -0.83820538657720      -6.10957034889076
O        -2.25906435300150      -2.80800263062722      -6.20957629474471
