41
C11H22F3NO3S optimized with DFTB in AMS.
N        -0.43655808454370       0.02978837420136       0.21798030171242
C        -0.99064497028518       0.51791416046548      -1.08743720359731
C        -1.22080130225843      -1.17980907619333       0.65933258661940
C         0.98710778934714      -0.38741270210417      -0.05028208922152
C        -2.47980001116517       0.83400106710927      -1.01861327170190
C        -2.72438711435329      -0.94509252154731       0.71080607204047
C        -0.49714690049667       1.08561741106803       1.28826475068762
C        -3.26459023695161      -0.41178634295632      -0.61222615755552
C         1.76853849016147      -0.89056584501587       1.16283940270088
C         0.22615703229759       2.38115273044195       0.96414474114366
C         3.16640449320029      -1.31184148250613       0.71359626273934
H        -0.81739281857951      -0.27525174773629      -1.82089402329097
H        -0.41759727375073       1.39734629960837      -1.38708506447774
H        -0.86107275542630      -1.45522838703470       1.65189174688278
H        -0.98583358460400      -1.97923087287653      -0.04952262091294
H         1.49512966214462       0.47451493359716      -0.49091366315552
H         0.94039326994129      -1.17497293615445      -0.80826079001278
H        -2.79096714438999       1.16995517213509      -2.01149272537504
H        -2.66891692655125       1.64878404544236      -0.31560217119999
H        -2.97238921758912      -0.26176833625235       1.52529312537991
H        -3.18699165686225      -1.90810698122914       0.94110465567333
H        -1.54828273476207       1.28888488591271       1.48986358072808
H        -0.06945450208318       0.63901605248190       2.18424938408342
H        -4.32303189746557      -0.16325247510786      -0.50686006206719
H        -3.16891798232511      -1.17392176867681      -1.39329855731080
H         1.85281115456133      -0.10963393098355       1.92029761958111
H         1.26189923650684      -1.74237759787151       1.61896578258895
H         0.15860098973433       3.00769120070642       1.85365969435377
H         1.28052060634613       2.22093990978982       0.74496401085982
H        -0.23409588945018       2.91629258668546       0.13429955241173
H         3.72728749512901      -1.67374926829507       1.57409790073187
H         3.11036255226974      -2.11111134526510      -0.02667379653946
H         3.70349395822931      -0.46841376342362       0.27736841660939
S        -1.09570647177728      -0.54908732111338       4.33670025163055
O        -2.11323188032411       0.11775104802232       3.53131755790536
O        -0.00125610680917      -1.09234962420609       3.52929613099636
O        -1.58617134608937      -1.41681943489613       5.37068346437626
C        -0.27025067421548       0.87023806497645       5.19989071093558
F        -1.11516801423286       1.56338932235937       5.94958510239807
F         0.22583049952775       1.70357453210661       4.26702966529390
F         0.74068806434469       0.47137624083559       5.95928804625460
