37
C9H20F6NP optimized with DFTB in AMS.
N        -0.74730707089033      -0.04028854456704       0.09549985447139
C        -1.14170669085934      -1.15819216015070      -0.83630551460437
C        -1.70760185170351      -0.11795688994029       1.26988609864694
C        -2.60821289787921      -1.42395516873884      -0.54366393867841
C        -2.69004295406493      -1.24536362796166       0.96816692161164
C         0.65452946109626      -0.23455427183706       0.58526315337966
C        -0.91265266552255       1.27582894210713      -0.62512581573664
C         1.71004288140478      -0.21297902226608      -0.52021705211679
C        -0.43595992094342       2.48152913800129       0.16717853666493
C         3.08172754732406      -0.52861836843897       0.07545780060898
H        -0.53693641762212      -2.03399641922296      -0.58746511653881
H        -0.94481491970064      -0.86211113811232      -1.86637173781130
H        -2.22297377144882       0.83799520075838       1.35312298156221
H        -1.13744949327337      -0.29943518480798       2.18146724117047
H        -2.89317569900183      -2.42796216921914      -0.86025183671883
H        -3.24403152217362      -0.69505807006189      -1.04902144987245
H        -3.69583442011161      -0.97070294036420       1.28683761270610
H        -2.38957162698309      -2.16353894995981       1.48092280644398
H         0.67767687813951      -1.19837803917593       1.10190799806428
H         0.85672242643555       0.55301002657288       1.31456331680291
H        -0.36365284099950       1.20377162499632      -1.56692800291154
H        -1.97648569419747       1.37012424973787      -0.84495176088046
H         1.46942525780720      -0.95285203038266      -1.28834938571250
H         1.74391716942171       0.77064163164703      -0.99458444829962
H        -0.83764776871476       2.48317798592986       1.17776286125029
H         0.65153241803147       2.53891620473029       0.20916972978126
H        -0.81420712321367       3.36812947652519      -0.34141419474098
H         3.34602946889559       0.20603054956950       0.83681639172952
H         3.08428253392487      -1.51995544276611       0.53020726715451
H         3.83660773504044      -0.50330711009796      -0.70971780827989
P        -4.33727452231245       2.74213125054370       0.26359141362818
F        -3.12360587967884       2.66536275788326       1.42365719982886
F        -5.41011316501956       2.20584319888790       1.36970499450151
F        -4.62140236103142       4.29224514649905       0.64863456990871
F        -5.47016992925235       2.75130944057714      -0.90306452099871
F        -3.18034471985742       3.20441995871271      -0.84234341911755
F        -3.97042525666566       1.12875554529207      -0.12206738329749
