44
C12H24F3NO3S optimized with ADF in AMS.
N         0.29829643342027      -0.04999661402744      -0.15292620602489
C        -0.70513729525209       0.86923065001197      -0.81339446661519
C        -0.44081965838694      -1.24851584446242       0.40603058783614
C         1.28562375368026      -0.50905658795617      -1.23176693636018
C         1.06884342565238       0.65011312964922       0.97291249539538
C        -1.81414370420420       1.30774716795823       0.12674465881803
C        -1.60262307903374      -0.88084407399908       1.31913410588838
C        -2.57402072192468       0.09450055604090       0.65958124674021
C         2.08986758391748      -1.74998312965783      -0.89533697906672
C         1.53054760626099       2.05412033368107       0.64916085893251
C         3.13631331117650      -1.99460323656959      -1.98761195708873
C         4.00233149749757      -3.20486370562214      -1.65167028984641
H        -1.13065528277928       0.29236312326103      -1.64991338817787
H        -0.14021770452288       1.71307885386843      -1.23049651929760
H         0.30198420880058      -1.85948218350502       0.93482191061830
H        -0.80046496857656      -1.81323825919189      -0.46950204001087
H         1.97477569786121       0.33441945687764      -1.38640924865348
H         0.68265714572911      -0.66138271692341      -2.14169902213165
H         0.41060532151253       0.64902566943095       1.85017304552625
H         1.93537743147150       0.00371568642010       1.18914856815610
H        -2.48526045319875       1.97639364477962      -0.43632817447864
H        -1.40264947887106       1.90067000817846       0.96028719148681
H        -1.22703623551458      -0.45768111424428       2.26464844549340
H        -2.11124345218099      -1.82198130502212       1.58650935298439
H        -3.34834581434342       0.40611304863039       1.37821401463916
H        -3.09251636343929      -0.40708901639904      -0.17827151419374
H         1.44139024837886      -2.63928098461908      -0.81514929528784
H         2.63387355053244      -1.60784048091154       0.05448607813708
H         2.20681829121257       2.36092978028202       1.46315645559806
H         2.14803221562593       2.09075217454699      -0.25823181836231
H         0.70451376446360       2.77781693775953       0.58535996759675
H         3.77326686046837      -1.09735934108551      -2.05522694719170
H         2.63936029597661      -2.13750007909545      -2.96606490978293
H         3.39655234472140      -4.12284449994172      -1.56878678053697
H         4.51903375109693      -3.04073990865030      -0.69329153754891
H         4.76586472430063      -3.36875025373889      -2.42591404327889
S         4.68361289305594       0.52022086360336       0.86307564465921
O         4.02140325381947      -0.65949537672034       1.47581744901366
O         4.79027718084348       1.69733637967187       1.73243447619891
O         4.25078632223786       0.78616799641151      -0.52856046268338
C         6.45891386310345      -0.05598200403917       0.65165087824772
F         7.02586268891677      -0.35829884448997       1.84829255894638
F         7.21116132424068       0.90834143440072       0.06088563351937
F         6.52534585505311      -1.17191690269161      -0.13205261811327
