42
C12H21F3N2O3S optimized with DFTB in AMS.
N        -0.72867661749434      -2.14375394508039       0.29972192027763
N         1.34083988140016      -2.17963666210785       0.89448718757603
C        -2.13537702698745      -1.76329672759389       0.20916427017111
C         2.59251791695913      -1.84623053839350       1.56701836780554
C        -2.38165302649969      -0.84914410473324      -0.99429032183507
C         3.47219459258755      -0.95907109407282       0.68142134755018
C         0.16127472568059      -1.60691855466879       1.13461671042324
C        -0.09747656355256      -3.04367381050218      -0.51276445983131
C         1.20903826001973      -3.06591211519067      -0.13800135007391
C        -1.58931870473831       0.45710799599765      -0.90501167080877
C         2.80782548886178       0.38099059842468       0.35728114191961
C        -1.83589583508531       1.32422299302038      -2.13746538489155
C         3.69948142456363       1.21890176246539      -0.55689407803415
H        -2.72142643815007      -2.68176697308592       0.11509564989492
H        -2.40405745376161      -1.26358479152308       1.14464197329863
H         2.34240466843581      -1.33939978639474       2.50376638222587
H         3.10639380300759      -2.78413550163264       1.79502362113891
H        -3.45477588787966      -0.63931479732200      -1.03124405123790
H        -2.10306337972676      -1.37987411187041      -1.90753738695410
H         3.69106562157180      -1.48991650554129      -0.24759302755489
H         4.41303462725121      -0.79529392658297       1.21516706179533
H        -0.04298390729891      -0.86861369862868       1.89016279471528
H        -0.61371258412660      -3.56656042862457      -1.29732854574872
H         2.04558619775189      -3.61247830443252      -0.53406311139786
H        -1.87216661692013       1.00129939208767       0.00376813840046
H        -0.52256641171725       0.22382597131542      -0.84470292829192
H         1.85662459105020       0.19511388469542      -0.14973748054920
H         2.60000166321519       0.92574481766496       1.28572739137515
H        -2.88850235529920       1.60085748991216      -2.21402807765730
H        -1.54538455690419       0.78170026024751      -3.03677076663178
H        -1.23907972811120       2.23361047491399      -2.07268647623628
H         3.87108968158224       0.68873109777683      -1.49343760761791
H         4.66116691742392       1.41808465669685      -0.08154226250417
H         3.21258079185155       2.16796266664789      -0.77874300968514
S         1.38379563194948      -1.41204147419011      -3.12809937771318
O         2.33856716334216      -1.57489565297280      -2.03609200398220
O        -0.00594901880368      -1.54435785002302      -2.70200061051764
O         1.72057300519354      -2.09862992339320      -4.34646387955957
C         1.52067775485826       0.39553388659058      -3.52433664027375
F         2.74640984128024       0.72219457469535      -3.91716907019620
F         1.24079520152423       1.11811664739200      -2.42956371755253
F         0.66429624459498       0.75774707961656      -4.47282873723089
