37
C11H20F3NO2 optimized with ForceField in AMS.
C         2.56527979649212       0.25910709302310       1.72192660777745
C         1.59321677347118       1.22726440626620       1.07179659917588
H         1.29427894156014      -0.90738716994366      -0.84343301145070
H         0.31858326700185      -1.71841373079254       0.42483568815229
H         3.13085656439464      -1.37495799974201       0.40659762551681
H         2.12793793817914      -1.86034759447512       1.83240892999273
H         2.36432907336411       0.19587608206289       2.81385511295715
H         3.61836304254645       0.57813256781304       1.56836846499687
H         1.30275523316148       2.03847207003878       1.77859035266875
H         2.12633722729907       1.70909103308571       0.21800710056634
H        -1.34551566082193      -0.43195457553427       1.45983796003586
C        -0.54051958373674       0.28992250385841       1.71496972128439
H        -0.04671334619556      -0.10268574324764       2.63094363444395
H        -1.01014975473692       1.26615137397895       1.96883354643184
C        -0.18775945488521       1.15333048030366      -0.57086952378230
H        -0.31351127533262       2.23084708275017      -0.31245019317252
H         0.50102258831885       1.13980049255256      -1.44630788553448
H        -2.33140156979845       0.74663245235927      -0.21903419905152
H        -2.91291622852369      -2.06476029094899      -2.74513834136896
C        -1.59890529991591      -0.74477513722336      -1.63630570605857
H        -0.76321644810650      -0.86166040802365      -2.35958421084575
H        -1.49358584810038      -1.49783657116672      -0.83168287259160
C        -2.91579107028521      -1.02483797908119      -2.35590842508552
H        -3.04639702239597      -0.32723529481741      -3.21049658477297
N         0.42790260972628       0.44262376481532       0.59727391533195
C         1.01341677759657      -0.87203541616908       0.23357762908058
C         2.28320558597554      -1.07444366938460       1.06078516999706
H        -3.77037786939296      -0.91104866208946      -1.65480643392450
C        -1.58442378684646       0.66727380320218      -1.03635775060432
H        -1.92088196800211       1.37896501407936      -1.82286088210568
C         5.85145507507742       1.75518586594119       0.00103252393233
O         4.95006443250994       2.53359135423011      -0.26712524038705
O         6.71878725614464       2.08652482938885       0.79306170008245
C         5.89945671477497       0.39760768365528      -0.63462306474072
F         7.06647917460338       0.27152603985089      -1.36489158131568
F         4.81730226901016       0.21684956745810      -1.47829048594925
F         5.87189107166868      -0.57471304177435       0.34773693351740
