71
C21H29F18N2P optimized with ADF in AMS.
N         2.33172747086195      -3.09438668512286      -2.60602725255947
N         0.88430306918917      -4.50536234186294      -1.81745871897669
C         2.77129676430302      -0.66457514406415      -2.41648762713999
C         3.36725553545888      -2.05212595996279      -2.65369617826743
C        -0.44213920160847      -4.44406635280855       0.27004794247220
C         0.10607160023111      -5.31120808219635      -0.85639952187823
C         2.16257645297670      -0.49954987111054      -1.02664504319295
C        -1.30129141677833      -3.27960389302295      -0.21332384302454
C         1.55322359402690       0.87906663966486      -0.78335669236633
C        -1.72332988448928      -2.35100348488485       0.92255405026979
C         1.91623287138279      -3.71427920734244      -1.49278552038725
C         1.54405216563712      -3.49472534837253      -3.66392819220162
C         0.63433781298657      -4.38453939479198      -3.16622245834675
C         0.98617737002887       1.00883838149281       0.63036972024400
C        -2.53507288921278      -1.15056872333891       0.44093583485299
C         0.31378196125371       2.35415384950821       0.88815680297923
C        -2.94632880283172      -0.21977938443363       1.57882936317754
H         3.59117955115463       0.06202603739115      -2.55374533912879
H         2.01861996497151      -0.44684421964775      -3.19630316873570
H         0.40038107529361      -4.07882558974344       0.88125623859607
H        -1.02463665205899      -5.10781664933511       0.93240327655428
H         3.85199288123550      -2.13193716307935      -3.63770324919176
H         4.11117214567423      -2.30459278561200      -1.88689016619991
H         0.76578513627719      -6.09675418975334      -0.46668703080771
H        -0.70299552927914      -5.77488384501329      -1.44004008448729
H         2.93540925543305      -0.70108523939370      -0.26550822505349
H         1.36865698630733      -1.25267646113872      -0.87196627320339
H        -2.19907917383341      -3.66463960488084      -0.73398257543595
H        -0.74173334249151      -2.68587775611135      -0.96097092133743
H         2.32027509813582       1.65884482964617      -0.94678360962098
H         0.75183533153890       1.06744862729894      -1.52277022586978
H        -0.81891054574526      -1.99617462480089       1.45111746318337
H        -2.31073575724503      -2.92085192172966       1.66657575213665
H         2.35072787090492      -3.61843683182456      -0.50395702430291
H         1.70752911640790      -3.12792131692647      -4.66946506851456
H        -0.14942079031107      -4.94933761471256      -3.65479438211066
H         0.26004141866206       0.19395603535733       0.79899539827133
H         1.80187494498032       0.84880174607154       1.35826281323251
H        -3.43468074653518      -1.51046147758561      -0.09170086775809
H        -1.93920894646836      -0.58864988247336      -0.30253295006522
H         1.01809950358096       3.18591196703477       0.72607013606704
H        -0.54359120677177       2.50307506983317       0.21228381831639
H        -0.05644788339191       2.42621103288270       1.92253026967002
H        -3.53929025599697       0.63151406712651       1.21065936795077
H        -2.06129086654027       0.18297070194695       2.09603964575455
H        -3.55370407605702      -0.75701405623220       2.32493203623597
P         4.11582125284985      -5.26703221897051       1.79157003866336
F         3.31016289692317      -5.15881584515945       3.23600796734726
F         5.60045085632507      -5.38189484540279       2.50460465110832
F         2.62394550064219      -5.09936709253480       0.97863903307811
C         3.87545106487188      -7.20567882130170       2.00906745052630
C         4.29683980746901      -3.23417018137077       1.92327410519695
C         4.95652287777081      -5.37885982705484      -0.06296141666993
C         2.44301746240034      -7.82577158064288       2.07406614214341
C         5.58578986455285      -2.41882056751352       1.46316795740820
C         4.44672685534242      -6.26211025796481      -1.28339749553670
F         4.46475397496299      -7.58406412763191       3.19140488219942
F         4.52218546174486      -7.90259498341903       1.00345060123099
F         4.17765408969742      -2.92543291721358       3.25033697294180
F         3.21631416261567      -2.60537100776720       1.29485089529371
F         6.29603810596493      -5.63578958469745       0.00791317381913
F         4.82597015427529      -4.07457823701140      -0.55839500780553
F         2.54645079354774      -9.14994751873971       2.37075840581880
F         1.79055518192466      -7.73932902991275       0.87954294036198
F         1.66566658607241      -7.25060109036199       3.01513691499785
F         5.90587043363279      -1.47696476005776       2.38746415767309
F         6.66559029164277      -3.20181209729805       1.29060727259324
F         5.36183980542835      -1.73644265769397       0.29632155491064
F         5.17461906947730      -7.38303302377775      -1.43534921913357
F         4.57379134992268      -5.55068619688661      -2.45081557871413
F         3.13930713209430      -6.60792722526024      -1.19168607925252
