55
C15H20F18NP optimized with ADF in AMS.
N         0.40485706343653       0.25900360983045       1.00367450655377
C        -0.31271488471433       1.04377321327904      -0.07587302922854
C         0.27139654036203      -1.22752806032350       0.69932702791598
C        -1.76656934008796       0.63719620163237      -0.24624737563865
C        -1.17039284229266      -1.67121093318663       0.51428172705231
C        -0.16885648826770       0.54055460289647       2.38672010789902
C         1.87481665494507       0.64936663059633       0.93435316486458
C        -1.88341394285238      -0.85386832497306      -0.55902201795395
C        -0.03593640873095       1.97366899174446       2.85363315381105
C         2.75967443163619       0.05584507096600       2.00907086763607
H         0.24860505888802       0.85002770910466      -1.00492804331256
H        -0.20394708670771       2.10814581066020       0.17267371604959
H         0.74990371231548      -1.77273902321521       1.52129508084346
H         0.84792656411786      -1.38972506656212      -0.22668320663604
H        -2.18390041848445       1.24753165214203      -1.06430189006769
H        -2.34636080631078       0.88993204752089       0.65705734005900
H        -1.71266907272538      -1.62041111446894       1.46967889156188
H        -1.13951146461720      -2.74079984638930       0.24848456856679
H        -1.22006421533221       0.23590414321145       2.35904212790862
H         0.34568579314972      -0.14147963491319       3.07337761310553
H         2.20487638237921       0.33822032676416      -0.06937364793718
H         1.89621658928198       1.74899446977302       0.96459309407102
H        -2.94219868940713      -1.14896028928657      -0.62624024569200
H        -1.42827914363841      -1.05443341777609      -1.54675976700205
H        -0.47079083965814       2.01677051862411       3.86312243069151
H         1.01013891184864       2.29598078263214       2.94768453498709
H        -0.58336497722370       2.69138344236016       2.22524599840883
H         3.79360502819489       0.36156036994792       1.78735020764816
H         2.51194977866425       0.41454075627441       3.01564682463480
H         2.73443030214629      -1.04152588586558       2.03016884031858
P         0.79376202776976      -2.23192101410497       5.64260524645009
F         2.28158433463395      -2.96566312453252       5.65497488869510
F         1.32594127398026      -1.03474556536453       4.56023895848020
F         0.19421375044639      -3.38721734912861       6.66133008382631
C         0.51000984623545      -3.36820821043744       4.04697357779037
C         1.50782768149791      -1.07000645762655       7.14961091926625
C        -1.04774159436161      -1.35567389362173       5.75012712997036
C         0.35662835684027      -4.90912828282888       4.21113949002019
C         1.25767518437518       0.47433524848812       7.31494285561622
C        -2.40382882070409      -1.85716399935189       5.14324574784428
F         1.59110143323563      -3.21996191103193       3.18347981748270
F        -0.59193577371594      -2.96854365375622       3.30219306632435
F         2.88506390709869      -1.10866066948219       7.04479008015077
F         1.18009307374655      -1.62400664945743       8.36391780335292
F        -0.97739039513788      -0.03298471249412       5.31616726619189
F        -1.31256989468297      -1.32212455783353       7.09994748930002
F         0.29001246926736      -5.47678568233969       2.96347324230046
F        -0.77923974780093      -5.23486759958362       4.86215629315527
F         1.40603374802398      -5.45567756495309       4.85311494829950
F         2.11853032892794       0.94757030220545       8.26129268687581
F         1.51567027115268       1.15493790312754       6.16240972190193
F         0.01334832946094       0.79855384860682       7.72537372486882
F        -2.55667955806858      -1.48440590093015       3.83504721105075
F        -3.43699617916001      -1.27612229540536       5.81323364257153
F        -2.54760646107603      -3.19124883156354       5.23598716939497
