26
C8H15ClN2 optimized with ForceField in AMS.
N        -0.71756012646603      -0.90198150869844       0.38753596264040
N         1.48567986331956      -0.60667066531654       0.35978670467350
C        -2.12696454972730      -0.76079453890715       0.74896539021457
C        -2.89541105666277       0.02625533585574      -0.32015012907027
C         0.33228728241545      -0.30822278260797       0.98789690724332
C        -0.21108493009042      -1.60329104114154      -0.64686890678730
C         2.81260270645911      -0.08433282453584       0.67161100893050
C         1.15636218601671      -1.41691188396731      -0.66602666143541
C        -2.34670679596090       1.44210372915743      -0.49546916691063
C         3.16120106741129       1.06106701179597      -0.27112805437556
H        -2.22064442569278      -0.24096248954411       1.72806501861042
H        -2.57845853426472      -1.77026562235698       0.86017605097169
H        -2.84756890215154      -0.51132526876867      -1.29170956127734
H        -3.96296428463924       0.09075053948095      -0.01824976685822
H         0.25418096848831       0.35606965478076       1.84016271489807
H        -0.79326701837802      -2.19041740416601      -1.34526980739451
H         2.83750198811119       0.28833379030390       1.71888165049767
H         3.56627612043441      -0.89562460118260       0.57559613472991
H         1.85559647622224      -1.82883737874275      -1.38219042239904
H        -1.30732526629775       1.41115110469260      -0.88617184978875
H        -2.35795997172223       1.98469828581618       0.47378157352682
H        -2.97666131441106       1.99679656302152      -1.22201746700544
H         3.15860842749360       0.70759670216004      -1.32412278870133
H         4.16947186950795       1.45536985166396      -0.02605943810078
H         2.41870699197584       1.88008877858734      -0.15986800009898
Cl        3.10058437070913       3.92408841931952      -2.51680415863332
