34
C10H18F3NO2 optimized with ForceField in AMS.
N        -0.37102498592191       0.37119645576073       0.05980308670271
C        -1.42333103577951       0.61965777705078      -0.96210188383879
C        -0.83366036393189      -0.82202190303962       0.82737515576681
C        -2.69320694352056      -0.05380599863260      -0.48661291043084
C        -2.19594987788175      -1.24394083953161       0.29104583528765
C         0.93003356136468       0.11600570127535      -0.63061457214456
C        -0.27464295060183       1.55776166467029       0.95042743057947
C         2.14156630330194      -0.03926369011442       0.31724470279719
C         3.35378655452297      -0.58311205142121      -0.43482565741994
H        -1.15936783553768       0.16509200196325      -1.94526211257336
H        -1.60250620047976       1.70343662669698      -1.15021575646246
H        -0.93284014732513      -0.60952737446854       1.91723906918557
H        -0.13942513884974      -1.68731977584437       0.73946127051505
H        -3.34017978408771      -0.36122453407740      -1.33721686414550
H        -3.25721951086953       0.62999262559279       0.18469312559852
H        -2.89796981595490      -1.51651824591082       1.10876057476999
H        -2.07623435520035      -2.11202452218475      -0.39521678361760
H         1.15385062247042       0.94997967984189      -1.33553981524606
H         0.84452429224420      -0.80754197614691      -1.25010698548421
H         0.13219976831858       2.43592924875079       0.40098843865311
H        -1.27427096531384       1.83519391619422       1.35391278022525
H         0.38292217655796       1.35726485706362       1.82416374629098
H         2.41635585765689       0.94975883723634       0.74208511242551
H         1.90940441564568      -0.72704143032051       1.15673569095348
H         4.22255612426902      -0.64996208821202       0.25328519103056
H         3.13705228907340      -1.59823285517362      -0.83090935287692
H         3.61804677353783       0.08986681733464      -1.27836330785217
C        -0.99052245742118       0.85070846762506      -5.36587968388496
O        -1.63433902469348       1.88834555024378      -5.36899481700044
O        -0.18191979177883       0.64633344902577      -4.47503440643226
C        -1.18689525902688      -0.17138860493918      -6.44662173581903
F         0.01883235521318      -0.41378447157559      -7.07874271816174
F        -2.10287101073439       0.27722437169506      -7.38246203995594
F        -1.65231048466588      -1.34814200062818      -5.88967061213507
