40
C12H22F3NO2 optimized with ForceField in AMS.
N        -0.10854941466099       0.03114688667782      -0.07235700685428
C        -1.02462572031284       0.54557332304112      -1.14210032767093
C        -0.62632310905060      -1.29077303299117       0.41148883735300
C         1.22983199923274      -0.18574179437814      -0.72346719574379
C        -2.49744249874325       0.65056878721851      -0.71245136206250
C        -2.10091291957453      -1.26387561789383       0.86338517284660
C        -0.01055657448185       0.98600224455005       1.08616320517353
C        -3.01076732823044      -0.70035435519556      -0.22442215610383
C         2.36965890279020      -0.64957032350725       0.21710192428344
C         0.59887476446428       2.36351655637589       0.76694751162544
C         3.65835456859142      -0.88679307670054      -0.56670224673449
H        -0.99549525449403      -0.13189811627706      -2.02771302417046
H        -0.69242745237828       1.53416000528664      -1.52196905154451
H        -0.03388429629250      -1.65750007402482       1.27732722120546
H        -0.53669216494918      -2.06121853172074      -0.38889988626684
H         1.56398140178652       0.74034801792304      -1.24272093297196
H         1.13607947121544      -0.94731381933516      -1.53253874104550
H        -3.10439653313942       0.96827569963772      -1.58790278216651
H        -2.63496811019222       1.42565996737281       0.06913321392919
H        -2.21812797953926      -0.67943829325801       1.79968862493558
H        -2.42279450625412      -2.30273058776985       1.09392080790723
H        -1.00421316233312       1.17683062770423       1.53537859859551
H         0.58117802237930       0.53543826464033       1.91203826482556
H        -4.04032134272398      -0.58233570435847       0.17752355867903
H        -3.05568280514888      -1.41271617054624      -1.07766105574836
H         2.58577627161386       0.11712372063453       0.98855878024422
H         2.10486049555448      -1.59979831626884       0.72215936717961
H         0.63204779327872       2.96285605306010       1.70119614164320
H         1.63991986224355       2.28309066163809       0.39721560174373
H        -0.01941886112919       2.92853507348728       0.04218153962913
H         4.44960621959863      -1.24596521682653       0.12304875826835
H         3.50129569175311      -1.65920719615150      -1.34911869367363
H         4.00179899786957       0.05625111190040      -1.04333985436993
C         6.80448318910561       2.24753707232362       0.99049764038647
O         7.43675249642485       3.00673846505811       1.70790951982257
O         5.71959494114476       2.59526076725995       0.55227948973664
C         7.34870356794359       0.89174179052637       0.64992258645605
F         6.51159223426459      -0.08113846120962       1.16081416848253
F         8.61225206567986       0.72305940339066       1.18853892218491
F         7.42308080169360       0.75328189390606      -0.72386873120945
