43
C13H24F3NO2 optimized with ADF in AMS.
N        -2.06148341768358       0.67471214531807      -0.16839584025487
C        -2.77246204401907      -0.59509630166052      -0.68988152036233
C        -3.14682573776107       1.44525899888412       0.58895619411186
C        -0.96382170100591       0.31610063799762       0.82038489996013
C        -4.25118302791478      -0.40052989132950      -0.39510800201973
C        -4.20330588136694       0.40147497182910       0.90367885368990
C        -1.53324002275483       1.46262689075603      -1.34138612138610
C         0.15272792272160      -0.54307688776243       0.26116573625233
C        -0.85788425302948       2.76763289328061      -0.97161134967418
C         1.06063236311757      -0.98685531591227       1.41431340664512
C         2.14174439200699      -1.97103759517843       0.97474414804048
C         2.93893760515833      -2.51017940173898       2.16028385546170
H        -2.51154125660511      -0.73349032735244      -1.74657394244342
H        -2.43114421723634      -1.45000664616819      -0.09140354260254
H        -2.69174113633944       1.92664021400977       1.46430081387336
H        -3.53733827324358       2.21282138150358      -0.09724791548684
H        -0.57421460014326       1.26737331178532       1.21320915882353
H        -1.47463594397967      -0.23396751029819       1.63478520890083
H        -4.77196129135919       0.15415587543775      -1.19494102458667
H        -4.71632363826518      -1.38699472893951      -0.25075969214741
H        -3.86324589872023      -0.25958329221971       1.72218674226552
H        -5.16112013133364       0.86758444442579       1.17756732790280
H        -2.39889864430778       1.63414256105515      -2.00053855983036
H        -0.83390306792535       0.79882811999963      -1.86913508472667
H         0.74768275155274      -0.00647751554947      -0.50012890438723
H        -0.26458175185837      -1.44589894193146      -0.21619974483460
H        -1.51856980316689       3.43153877264331      -0.39606377614360
H         0.06636989189145       2.60492623586868      -0.40020671061572
H        -0.58531654105638       3.29190497974175      -1.90000785872661
H         0.43047431417741      -1.45603740143697       2.18947531264000
H         1.53211813603890      -0.10001768507818       1.87939268017003
H         1.65854390225359      -2.81351394493795       0.44989305109636
H         2.81924631219176      -1.48528862455339       0.24816635361370
H         3.70984510766061      -3.22543603020823       1.83416277980074
H         3.44096871547806      -1.69539065721047       2.70724509271756
H         2.26896471547728      -3.02857679254282       2.86369656708100
C        -2.37160125263308      -2.73666755952599       2.01307630638637
O        -2.12114595792093      -1.71879660445865       2.70857578925922
O        -3.23656087863485      -2.93194052832662       1.12722496150990
C        -1.40027665074971      -3.95089799469023       2.20377790163339
F        -0.53644214544011      -3.82540032756618       3.25464651540418
F        -0.61058978983039      -4.08946388365738       1.07399410962877
F        -2.06231936544114      -5.13036419530214       2.36950487326011
