37
C11H23NO2 optimized with ADF in AMS.
N        -0.02068622945309       0.43125234842955       0.29688198831525
C        -1.09544842695540       1.10711379040399      -0.52533132334697
C        -0.30893552892106      -1.06545030417966       0.40439648826554
C         1.29601045259668       0.64015310467615      -0.42987905040516
C        -2.49800431568676       0.85671008656134       0.00324340494137
C        -1.72138826939131      -1.35476999310325       0.88100215090226
C        -2.79129073465119      -0.64298903395770       0.05770040863612
C         0.06805441773149       1.04917210239210       1.66506890257468
C         2.49111081500832      -0.10637940672198       0.14027279392416
C         3.77118820608336       0.35177996588049      -0.55757843527265
H        -0.99842115355319       0.69646079995854      -1.54401999645766
H        -0.84356614496133       2.17909430458053      -0.55452491463920
H         0.42366521246454      -1.44004930899469       1.15070319952644
H        -0.11918114322784      -1.46828355106028      -0.60533458476846
H         1.47093008349176       1.72979088710859      -0.41580490727819
H         1.11533629067114       0.33719652182139      -1.47493173931159
H        -3.19966925303787       1.38027594518598      -0.66778231017899
H        -2.61780110127563       1.30845771579905       1.00191281756036
H        -1.76850659755418      -1.10390337398413       1.95653753852451
H        -1.84682492969863      -2.44956151320831       0.82895108616201
H        -3.79119001831446      -0.81951393899819       0.48593408284402
H        -2.80658991927888      -1.04364387765608      -0.97408610420161
H         0.84244322866245       0.49533676399243       2.22161319607106
H         0.27774923066249       2.12076173808624       1.53811961059757
H        -0.86574379202072       0.87734136637125       2.20763666128461
H         2.56602820470685       0.04080025313780       1.22713525468842
H         2.35815425589906      -1.18993434714641       0.00130902990030
H         3.72969930847204       0.17599035922560      -1.64506962798616
H         3.95668321176193       1.42521463426940      -0.39258904925779
H         4.63672564133670      -0.19981239028550      -0.16332032262217
C         1.11220161169527      -2.38992689216813       4.93738664366564
C         0.61427319127806      -1.55526423050461       3.74819596124978
O        -0.57691861983648      -1.13897548896330       3.77574267738735
O         1.46985598607078      -1.37001367518206       2.81071342407960
H         1.25709685648284      -3.43134422720127       4.60809244720039
H         2.09244007157805      -2.02244749777818       5.27663377889046
H         0.39353387816419      -2.37529708468667       5.76790952013468
