29
C9H17ClN2 optimized with DFTB in AMS.
N        -0.09267707259217      -1.22600549148188       0.14399802676472
N        -1.98676714880541      -0.21360056323893      -0.04818839344338
C         1.26389315944953      -1.56857502906333       0.56197484173801
C         2.30979177836942      -0.67350955317722      -0.12759478056506
C         2.85283536274891       0.40469022702246       0.81541459327871
C        -0.81458008041666      -0.19536028164355       0.58920121419983
C        -0.77401629654740      -1.83975203438043      -0.87806108960210
C        -1.96530770592092      -1.20392003580529      -0.99838728027170
C        -3.03482066455527       0.79292780871312       0.09111456018726
C         3.78489175218387       1.35728487369146       0.07049473941711
C        -3.07930437932088       1.69669455631539      -1.13594022799332
H         1.31485358810830      -1.46922012106066       1.65075481264557
H         1.41864608439307      -2.61953043624605       0.30306234063238
H         1.85340397127098      -0.19701226718075      -0.99875791378163
H         3.13234629857679      -1.30507384850666      -0.47774611311801
H         2.01715249350209       0.97732695272683       1.22703526750719
H         3.38622283901252      -0.07065368352800       1.64708797426646
H        -0.56767561604712       0.42479811415533       1.43086761719914
H        -0.36368804082732      -2.67472475950024      -1.41838153034972
H        -3.98773752604054       0.27147734722892       0.23172783152412
H        -2.81096112738112       1.37542518092093       0.98844308555682
H        -2.79362508276192      -1.38019245372049      -1.66179398817825
H         3.23437503349998       1.87525017509031      -0.71499366439016
H         4.61616638826524       0.81238247010569      -0.38114752304980
H         4.18705841611845       2.09847734632917       0.76164455922582
H        -2.12124919911644       2.20417296717402      -1.25097899731707
H        -3.86659473606885       2.43746455114379      -0.99991408446373
H        -3.28794276902974       1.11599489648482      -2.03389433452580
Cl        0.21105276683261       1.83997256533126      -0.61617408989337
