46
C12H14F18NP optimized with ForceField in AMS.
N         0.64902271004885      -0.00184274037238      -0.00280129606242
C        -0.24590840400878       1.05297326168334      -0.54791716908059
C        -0.23721321501025      -1.11274593577936       0.44493074876353
C        -1.65367247732865       0.74366408523931      -0.07682833277820
C        -1.66549324811909      -0.75709991323414       0.06182613727284
C         1.42950726432000       0.52976806573643       1.14030459014462
C         1.58960291906853      -0.47205525112941      -1.04703073787660
H        -0.25665726357501       1.05122024936442      -1.66317169199349
H         0.04803755481149       2.08089440763008      -0.23387007473679
H        -0.20356736605340      -1.25749153015147       1.55020795005797
H         0.03491605992463      -2.09534051120263      -0.00497513305047
H        -2.42044725453205       1.09495388829644      -0.80126586445139
H        -1.83122850942804       1.21490244337983       0.91518093813569
H        -2.39701004100307      -1.08998206014012       0.83006215565538
H        -1.91861700756582      -1.22067736404873      -0.91759513423637
H         2.10201895706272       1.35493366831792       0.81467080809620
H         0.75442742768448       0.92948112481144       1.93029783542516
H         2.05938273156141      -0.26766688274890       1.59470779785073
H         1.03917965913514      -0.91371290426178      -1.90829521279167
H         2.21020293570289       0.36940235088778      -1.42902362341393
H         2.27251241197902      -1.25288293504177      -0.64339855722180
P         7.20926356288062       0.87921010841230      -0.08146907187968
F         5.61542329918916       0.54632773472837       0.48651969466933
F         7.40371393881588      -0.04312070069389      -1.52393566125628
F         6.83793517833286       1.85797146017787       1.28400879808467
C         6.22101275704623       1.88013467474198      -1.40515086322005
C         7.35946517995754      -0.88605181145043       0.70201589432321
C         8.97179350438022       1.59078085272995       0.18921629193170
C         5.50036354203407       3.14929987586859      -0.89907828778277
C         8.69463729402255      -1.65218889063623       0.50114400232832
C         9.16989898569738       3.10841202714822       0.02732698317480
F         5.23711115261217       1.06390853087120      -1.95199653900762
F         7.06052763949380       2.24523363722059      -2.44504579947439
F         6.36107053102358      -1.70829331195047       0.18829278042307
F         7.15208460837207      -0.77772487315884       2.06839615697279
F         9.83004847742444       0.96461409884025      -0.69706874428026
F         9.37949197632162       1.28879862672173       1.47666106066355
F         4.79895204115282       3.71284738374263      -1.95036535695707
F         6.38885088070525       4.09225747554758      -0.43448312302875
F         4.59708626861098       2.84978942890751       0.10393894401479
F         8.51655623131793      -2.96291445799177       0.90873312318067
F         9.09366761818559      -1.67592920494357      -0.82156440921854
F         9.71070257833335      -1.12478525801913       1.27076299163067
F         8.80981780703827       3.54015497086481      -1.23106711596048
F        10.51225230589698       3.39872198003122       0.19734914158512
F         8.46884401887957       3.80768429155322       0.99228008567478
