58
C16H22F18NP optimized with ADF in AMS.
N        -1.62828615687956       0.57268000434799      -0.98475754331422
C        -2.27155404806770      -0.79075568800427      -1.19441837727255
C        -2.68656558152812       1.35740707355987      -0.19893219607011
C        -3.03801323530373      -1.05942770058813       0.08542017830746
C        -3.61476851824663       0.31936736185405       0.45548211714679
C        -1.34410924180034       1.21598566051558      -2.32863401663440
C        -0.38232444200613       0.45430456594632      -0.13264759639754
C        -0.72975615243107       2.60217306052613      -2.24790810831369
C         0.79532689206887      -0.25430599820444      -0.78188432828988
C        -0.64348745590503       3.19848578419077      -3.65480855969678
C         1.92568368282855      -0.41745854965497       0.23522589342247
H        -2.95548542746195      -0.67166871021743      -2.04107276958954
H        -1.49753582714975      -1.52347439633207      -1.44968333643685
H        -2.16071022074843       2.00055684240899       0.51740066999182
H        -3.23000281070061       1.97380295231542      -0.92241760868606
H        -3.82633814136573      -1.80424516590463      -0.09294544408661
H        -2.38038763398644      -1.45262175494824       0.87721510108274
H        -3.68467629191642       0.46072925823931       1.54281939262120
H        -4.61994303317366       0.43058237978433       0.02579055788801
H        -0.69521499910948       0.51777841495484      -2.87892928467652
H        -2.30926306941678       1.25549604471420      -2.85003963926291
H        -0.09989403437951       1.48122969085578       0.14246308240597
H        -0.69001402182908      -0.06298294601755       0.78910453940389
H        -1.35756518723000       3.25527612355815      -1.61776468346805
H         0.27583373892252       2.56829039651844      -1.79331047759124
H         1.15722854447237       0.32775386491174      -1.64454878623656
H         0.49866551075303      -1.24617284395246      -1.15918697708250
H        -0.01463918374701       2.57595425848643      -4.31064122075103
H        -1.64333234354888       3.26785763973234      -4.10648071043930
H        -0.20663391446015       4.20685199774789      -3.62171246603700
H         2.25073304539569       0.55790765942457       0.62949861374664
H         1.60786355577844      -1.03992166735724       1.08613355648232
H         2.79828931880911      -0.90002770358761      -0.22760637935256
P        -5.23059933539261       1.25260964392062      -3.92789976932368
F        -3.69224456939676       1.61453822470548      -4.51526030459578
F        -4.60483732168875       0.87610592372987      -2.38913580846599
F        -5.86740820072382       1.56936488454876      -5.41402176139377
C        -5.19629893462361       3.14527138418257      -3.35910070773677
C        -4.75145389368181      -0.66950207611736      -4.43484516365712
C        -7.09256543722520       0.82297199352358      -3.29952507275953
C        -5.14592908344608       4.28482219865706      -4.42633109642284
C        -5.23533677067166      -1.97383672099535      -3.67335959259073
C        -8.35039150123430       1.77129651900316      -3.47588461060121
F        -4.04800735685906       3.37023533784834      -2.59273893933448
F        -6.25031597128095       3.43893980166464      -2.52892022780589
F        -3.36420837922492      -0.75226088835524      -4.29893017795404
F        -5.02112196793671      -0.89038428599978      -5.75736644292925
F        -7.11517100659756       0.45817371800635      -1.97101468188430
F        -7.42141169669057      -0.29727946234394      -4.03659159021406
F        -5.14837189771742       5.48835653024706      -3.77788417030669
F        -6.20353107401793       4.26698231051389      -5.25850775000281
F        -4.01288240440498       4.22246400677250      -5.16447777809921
F        -4.24330710177481      -2.91707151880603      -3.69250439819085
F        -5.50782941255749      -1.73182687012386      -2.36315970312043
F        -6.31207373098859      -2.54183857473192      -4.24641808308035
F        -8.59141745889700       2.49651459745671      -2.35760615456620
F        -9.45832367938449       1.00745377283856      -3.68841570682678
F        -8.22688236611929       2.61287151213024      -4.52202054245065
