58
C16H22F18NP optimized with ADF in AMS.
N         2.20624433591308       0.23964377981901      -0.06604770345197
C         0.79912521159178       0.22930895393398       0.50425449362482
C         2.85928059918811      -1.11969941488801       0.17155087848945
C         2.06958709948656       0.47887684303890      -1.56307577345055
C         0.73739227246001      -0.19376309131679       1.96188409404222
C         2.80857633345501      -1.55405848845553       1.62346885128024
C         1.38240216869419      -1.56387983532193       2.16269718677214
C         3.01733106673348       1.33255997974791       0.56086043747127
C         3.35945681685033       0.67940979656435      -2.35454187205313
C         3.80032822927385       2.13555806428192      -2.54327303237307
C         4.84193446440439       2.25983749617840      -3.65259186751904
H         0.23092881409324      -0.47943030596169      -0.12029104589782
H         0.39118158091954       1.23952180030581       0.34782185809329
H         3.89379976376639      -1.03639036836761      -0.17443022204501
H         2.31015689339244      -1.82497324444109      -0.47334141587032
H         1.41575255307795       1.36148320474415      -1.66251345012129
H         1.51400890694576      -0.39696783565864      -1.93036102889644
H        -0.32813331514135      -0.20778481425203       2.24759196150200
H         1.22173856002137       0.55980168983579       2.60501090083166
H         3.46631732657072      -0.91640914951176       2.23236444913898
H         3.26176501941625      -2.55729543049168       1.66342826230483
H         1.37516120601614      -1.83464281472897       3.22996675297430
H         0.78600276413540      -2.32857739372558       1.63060483312427
H         3.00870445893913       1.21824460918025       1.64734159349347
H         4.05160672520442       1.24594178360487       0.21394778150041
H         2.57669101913708       2.29519723389074       0.27205620057208
H         3.16467708976359       0.25009284274819      -3.35395367326852
H         4.18483469003389       0.08045161076759      -1.93921176273492
H         4.21981862242467       2.54005858760703      -1.60845277287535
H         2.91587858632534       2.75115403069789      -2.79350208070289
H         4.42847099593845       1.92331900917852      -4.61687842334740
H         5.72610269589494       1.64782763389991      -3.42599611285413
H         5.17560956667502       3.30130218539849      -3.76927496927176
P         7.11941435930080      -0.62607561404903       0.95896647423226
F         6.06545084271034      -1.63805074975510       1.77591100364218
F         8.36570406070384      -1.08597146254259       1.93733233285460
F         5.85035930615811      -0.08194444750345      -0.06507202043428
C         7.37967923411650      -2.21034619953554      -0.24118081032540
C         6.51218192775815       0.78619342853845       2.23686950697769
C         8.43857278468943       0.55973258772011       0.02780322307539
C         6.14018027204754      -2.90573757980481      -0.90551792453641
C         7.20376704562598       0.90374760475439       3.62678349471495
C         8.03095197027777       1.31089442107808      -1.27280466797242
F         7.97380661922917      -3.20832947899143       0.49684992323250
F         8.19409971155891      -1.97164312320889      -1.32686853085333
F         5.17339016770562       0.55273120130863       2.56619303294772
F         6.50744255758830       2.04464662949354       1.67794828548701
F         9.56261038386310      -0.16580893985003      -0.28138864874846
F         8.86890270971239       1.54571188786944       0.89066661910675
F         6.56232792744568      -4.01027235144188      -1.57620499936095
F         5.53015553202279      -2.09591181708576      -1.81887338365833
F         5.19343983541828      -3.31463842686106      -0.02362286961574
F         6.60377344493286       1.90649814930011       4.34080148502759
F         7.05245425019587      -0.24455876460707       4.32744066850064
F         8.51468637528550       1.19653545995361       3.54128199932235
F         9.10569998056143       1.96831540465528      -1.78671776951895
F         7.06586332532049       2.23708684881921      -1.03117059778656
F         7.57165564116999       0.46867154054342      -2.23038530869264
