40
C12H25NO2 optimized with ADF in AMS.
N        -0.47772847805674      -0.18696437233092       0.26114389776636
C        -1.15675726372754       1.12710950555580       0.62200701175185
C        -1.12680602826659      -0.78518656554666      -0.95948919793288
C         0.97770754069146       0.16654572042758      -0.03229515810728
C        -2.66265042810710       0.99489859976687       0.77088036613265
C        -2.62553565484686      -0.97656061785719      -0.78466322654747
C        -3.30739993033494       0.35368739444670      -0.45982361544796
C        -0.53519790194972      -1.12736619230154       1.43573892598203
C         1.92948905228896      -1.00838440458944      -0.12166739138860
C         3.36220155842287      -0.47756585609647      -0.32155912333937
C         4.38995321386595      -1.35351403052553       0.39065768936652
H        -0.91284140864072       1.81460739434209      -0.20492740993996
H        -0.62840623124796       1.46983305070875       1.53491398249001
H        -0.60835880062562      -1.73228695209975      -1.16680400893427
H        -0.92326410770899      -0.08679979095597      -1.78752390239323
H         1.26339778263334       0.80833493089963       0.82252736219874
H         0.96017720823364       0.76018791036986      -0.96124477281023
H        -3.06060096836654       2.00954959738696       0.93833111662291
H        -2.91498480681831       0.41974906132154       1.67756455685215
H        -2.82275070018046      -1.71588756716635       0.00983320615543
H        -3.02178909256294      -1.40702091842026      -1.71964453299230
H        -4.38748543438771       0.20347091032158      -0.30076599635888
H        -3.20104724953524       1.03355495286484      -1.32594196507664
H        -1.53450992645176      -1.08590629239931       1.87897872461988
H        -0.33319470529399      -2.14349932657263       1.07410418355125
H         0.25863672645452      -0.81328169741975       2.15716788164457
H         1.66792943263760      -1.71329051460988      -0.93074351312406
H         1.90715608370538      -1.53937090234181       0.84074069290726
H         3.42551112956385       0.54063307433582       0.10096212377774
H         3.59182392361178      -0.38944604644461      -1.39815949659984
H         4.33686697202930      -2.39861745014546       0.04481978995070
H         4.18511587537083      -1.33762114141898       1.47353643394416
H         5.41480743036855      -0.99015615051450       0.22261875480913
C         2.75056479215925       1.41233394026119       4.31469734055936
C         1.81336366544989       0.84717603015874       3.24183018184377
O         1.03771445010674       1.68166338801899       2.67286867079642
O         1.89039537806007      -0.39651535996235       2.99767382652255
H         3.35437669335692       2.22692866334874       3.88652849979177
H         2.15408422560379       1.85010910083453       5.12999422069123
H         3.40917513969504       0.63312654644914       4.72066161976451
