58
C16H22F18NP optimized with ADF in AMS.
N         2.67779033568763       0.84794697715103       0.43149325243947
C         1.32386697219852       1.27151526281195       0.95355762456559
C         3.62864709502657       1.58576456025336       1.36275376126544
C         2.91538529603196      -0.64323476645096       0.52546248438718
C         1.47741831647586       2.76128336614286       1.25714570097866
C         2.98366550597693       2.95422680259785       1.58062302812056
C         2.87395652182130       1.32303460889454      -0.97861011315102
C         2.00856220661027      -1.48631374353834      -0.35451419725727
C         2.21717883866736      -2.98093239516282      -0.07187689302987
C         3.63257909764191      -3.47802785080647      -0.36588895012344
C         3.75546365280746      -4.99081782895778      -0.21299245894089
H         1.15554406731257       0.68750994640873       1.87134424323095
H         0.54544257306153       1.02784264302477       0.22017643301645
H         4.62190422352956       1.60386613353624       0.90452740697103
H         3.66463920397171       0.99221570414471       2.28740772387347
H         2.77540089927579      -0.90017859697101       1.58784386323143
H         3.97280646497302      -0.78554885127319       0.26864500316909
H         0.82460218846855       3.04713725758320       2.09387693118025
H         1.17760933572408       3.36950556402734       0.39141518635844
H         3.43990267076850       3.71214555276467       0.92876085682120
H         3.14734786129157       3.28164084031545       2.61636998962095
H         2.06237848064157       0.92844793619044      -1.59920032210459
H         2.85690473799270       2.41826232344802      -0.98879294030443
H         3.85212678912058       0.97233095867268      -1.32830712186175
H         0.94946829256654      -1.23161786238762      -0.17615258882802
H         2.22788471648612      -1.29668977178909      -1.41825824374167
H         1.49593193276483      -3.54649305354220      -0.68812233085195
H         1.95656747419984      -3.19544769825095       0.98174044621185
H         4.35999031803770      -2.99082776934459       0.30298664544047
H         3.92111793418504      -3.18148149673070      -1.38964503514969
H         3.50327422001122      -5.30720813521075       0.81231836769935
H         4.78220598427783      -5.32162503646280      -0.42725742829658
H         3.07614847424861      -5.51548183900226      -0.90362570370164
P         7.50862125594518       0.86380051284676      -0.92666108156389
F         7.38057440135760       1.40703804228955      -2.48977535122455
F         9.07209762308175       0.36959922137775      -1.09524456486910
F         5.89199315107974       1.35996024325433      -0.67335585661101
C         8.15426026995644       2.68931424190597      -0.55702588813968
C         6.88405120561310      -0.93100848406033      -1.69325414971683
C         7.43425397221461       0.12858617662672       0.97303309097876
C         7.16298710583355       3.89264054634694      -0.65808266319650
C         7.39671264354548      -2.35111530585878      -1.25918837521382
C         7.45672425415546       0.91612839343006       2.32535945775360
F         9.14653219131940       2.98626439669201      -1.46222550706070
F         8.73062978173970       2.79481269387989       0.69123087266333
F         7.20580667643535      -0.92013050179145      -3.02981476361099
F         5.48987516365290      -1.02346458388449      -1.63422441099753
F         8.41310042694993      -0.82020473133241       1.12899402314379
F         6.20410266675129      -0.53809870818651       1.04709902897907
F         7.85138260108691       5.05406872826880      -0.48446678136144
F         6.19995292047964       3.85759608314497       0.30877684014912
F         6.54540213170243       3.95416153578740      -1.85855986226032
F         6.92124266934263      -3.26807610009916      -2.15889130692350
F         8.74265656177374      -2.41309378766335      -1.27939191625629
F         6.95842290417604      -2.75422335895467      -0.04352507383130
F         8.69613411909001       1.28152223766627       2.69599565098542
F         6.96927644395327       0.10641270983995       3.31659554444191
F         6.65288204870856       2.01295259578747       2.28864078470339
