43
C13H27NO2 optimized with ForceField in AMS.
N        -0.85000760342651      -0.19664211757878       0.02649035146181
C        -1.18613343784570      -1.24981780987082      -0.98135576373633
C        -1.99202097875313      -0.20577493261719       0.99122864779242
C         0.41487902516207      -0.55750491562002       0.74705698045941
C        -2.61132619508916      -1.70927592483594      -0.73812771338165
C        -2.83182875016033      -1.43902483350548       0.72332452103670
C        -0.75969228161675       1.13681503728642      -0.65320070694901
C         1.68349902899592      -0.54483747801501      -0.14088656495928
C        -0.39076015452687       2.30980583737045       0.28691933601098
C         2.88761583198012      -1.11705238157066       0.61593204501697
C        -0.48039703463097       3.64617504657787      -0.44426628763006
C         4.13562226463356      -1.12871262637684      -0.26225938001650
H        -1.07716960385211      -0.90266143552173      -2.03425240104661
H        -0.53798062366707      -2.15094661166666      -0.88381718247887
H        -1.66890244310510      -0.19186391475487       2.05711089235486
H        -2.66287988408917       0.67408937790700       0.85790484688523
H         0.30753183515848      -1.57132049326012       1.19851959303341
H         0.58572967609608       0.12766581582162       1.60663121781488
H        -3.31457607374715      -1.09888854881401      -1.34679885503212
H        -2.74669524372224      -2.78664895361303      -0.97810271766515
H        -2.45449596951539      -2.29278720435428       1.32853574357697
H        -3.90696468134183      -1.26584381617851       0.94838905418755
H        -0.01678173036702       1.10435986617891      -1.48063509350819
H        -1.73351889667136       1.37040151298304      -1.14367954530555
H         1.52142602506608      -1.14130579994076      -1.06278876888535
H         1.92736235510709       0.49576523916454      -0.44067431175217
H        -1.06928124969588       2.34358427492208       1.16425597159139
H         0.64897430581093       2.19928446658544       0.65761286470818
H         3.08801722417813      -0.50102773618598       1.51967052119020
H         2.66936687192287      -2.15771455762881       0.94006757156450
H         0.22303079157738       3.66238316382215      -1.30384883324709
H        -1.51433643442319       3.81877971898598      -0.81111099837313
H        -0.20978948723987       4.46869646906425       0.25080380886847
H         4.99016626627700      -1.54477215005820       0.31182678511477
H         3.97012724823419      -1.76161283515182      -1.15974079137030
H         4.39038269866330      -0.09675613500299      -0.58447105824444
C         8.94902892004475       1.49168485093655       1.01646360129609
C         7.76189972256536       0.67912612661086       1.42587614827364
O         6.73128447592514       0.73824702072288       0.77569355786767
O         7.81777017410402      -0.04261622225409       2.40834599281614
H         9.28149395110213       1.18242071122175       0.00333897793873
H         8.67602002468250       2.56770286092950       0.99706137228055
H         9.78862196969971       1.34818432838531       1.72979891704024
