39
C9H16F6N2O4S2 optimized with DFTB in AMS.
N         1.31619527881864       0.43363139547671      -0.59790205614497
C         0.06704825306599       1.24170182940686      -0.43575267354330
C         0.97329623025574      -0.98120346726420      -0.95907698284755
C        -0.89858966403121       0.63544640417665       0.57697394082755
C         0.03565887615681      -1.62593291570004       0.05132195643235
C        -1.24451262917005      -0.80613652127831       0.20526800450425
C         2.15217659048709       0.48529892695320       0.63370781623206
C         2.11062306641481       1.01401678190640      -1.71656996150138
H        -0.40909978913649       1.29515479414804      -1.41900997755956
H         0.36700870736437       2.24781669292148      -0.13314429785470
H         1.91280949977214      -1.53308162988218      -1.02656681780930
H         0.50463805343596      -0.95287822139879      -1.94660585329819
H        -1.80365980928544       1.24847783267699       0.57759724745049
H        -0.47184798473428       0.67292938585666       1.58261544679092
H         0.53267137445288      -1.73678111954478       1.01837098570485
H        -0.20559627090542      -2.62686095315730      -0.31482834631362
H        -1.87478581878012      -1.24407211265718       0.98256280844987
H        -1.80478585437611      -0.81798843357452      -0.73533795115316
H         1.58453175190495       0.12879136681879       1.48825935312661
H         3.02564355012542      -0.14291518240084       0.47923837991254
H         2.46906526438173       1.51297813350418       0.79713009108376
H         1.51166851861217       1.00587052480118      -2.62519355979486
H         2.39604032806833       2.03106120137947      -1.45830640495797
H         3.00492780462577       0.41313303249613      -1.85096331978263
N         6.38995417502960      -0.81089420294284      -1.20502158590085
S         6.08059068030294       0.55411349096358      -0.42229176761462
S         5.18150230829998      -1.80329354261044      -1.50068634730552
C         6.10235242399167       0.10391965199049       1.40378130500458
C         4.53862888437892      -1.32702830654724      -3.20512603632307
O         7.21052764632051       1.42013209469996      -0.59469383974568
O         4.75319881874611       1.12303400944750      -0.62115368318429
O         3.99840498520745      -1.64799156215940      -0.65956390272993
O         5.70008163977591      -3.12800777465389      -1.68315470074451
F         6.65609135840430       1.08230720208251       2.09886059800003
F         6.77918502247759      -1.01050360542575       1.60844818588621
F         4.85650067757494      -0.06766549428724       1.84685854020088
F         3.21481399362585      -1.53272404412606      -3.24189139031656
F         5.10055847827710      -2.04434115044949      -4.15576484063412
F         4.74669273926341      -0.04042954954627      -3.45403251904665
