37
C9H13F6N3O4S2 optimized with DFTB in AMS.
N         1.78596902338438      -1.19242867306871       0.01478847442268
N        -0.13349480057523      -1.83548528912182      -0.71436972214372
C         3.14742905233449      -0.66722828881146       0.04559662719058
C         3.17855538954612       0.73691661590977       0.65000784052434
C         0.98045103730062      -1.18305837221287      -1.04190237833322
C         1.18146963509745      -1.87400946114213       1.03426104931753
C        -0.02883079050230      -2.28579568405905       0.57238952001114
C         2.41531871194440       1.74811235260650      -0.20244240074549
C        -1.18434663508577      -2.17514110735385      -1.65926161090572
H         3.52376394787134      -0.66935970916604      -0.98111072900421
H         3.74702675785110      -1.36092536161629       0.63925756020498
H         2.75799159322779       0.70670336430783       1.66004878382506
H         4.22627134670561       1.03926231060803       0.72734520413461
H         1.19322577434749      -0.75370487028680      -2.00429658635456
H         1.66285993569624      -2.02739666771175       1.98382714648783
H        -0.80937192769668      -2.85557557627786       1.04518733460717
H         1.36257521142262       1.47133127076513      -0.27708504852270
H         2.83558773493478       1.79383818238492      -1.20696837982474
H         2.48201872452069       2.73711273382683       0.24962249057093
H        -1.45377510800723      -1.28926889955130      -2.23282411482751
H        -0.79974231349363      -2.94480956046402      -2.33159337550423
H        -2.04854138089819      -2.54768742150076      -1.11355698606376
N         3.84719867795060      -2.38160219280572      -2.50807191238956
S         2.76379294512845      -3.50749813698798      -2.15449761083175
S         3.95939600349028      -1.94030600006894      -4.05362799007955
C         3.30355638274138      -5.15619016279063      -2.88407489134931
C         2.74139815257206      -0.52118440258197      -4.22127466606496
O         2.83988497230220      -3.69586038430689      -0.72022359030531
O         1.43271519412227      -3.27566858722611      -2.70272869054467
O         3.53596714121796      -2.92515611144193      -5.01091879169943
O         5.22555728998394      -1.28676246245930      -4.22009314625526
F         3.08066231614933      -6.09750382213644      -1.97892451850686
F         4.59133005814312      -5.13134223161461      -3.16771460295841
F         2.61151546461597      -5.43521417582314      -3.96759077256438
F         3.00468247039037       0.21373868063165      -5.28222325350823
F         2.84256853833373       0.26223791323575      -3.13111593678774
F         1.47863489323227      -0.92969840828802      -4.28465958762159
