67
C19H28F18NP optimized with ForceField in AMS.
N        -1.56275924163364       0.07400702506651      -0.07819384868302
C        -2.58683459636962       0.47234624528081      -1.09913803452967
C        -1.79262942201667      -1.35823268608951       0.30328630850560
C        -0.22253893680057       0.18299378720686      -0.75221964225415
C        -1.63579574369210       0.93933375731659       1.15099104256349
C        -4.04186428391110       0.23520502209437      -0.65930531950680
C        -3.23120843630235      -1.66111002047262       0.76869674999687
C        -4.25377111936047      -1.22575986875538      -0.27582952254000
C         1.00679311919401      -0.13553452762813       0.13518602435305
C        -1.29059182183775       2.42599707236218       0.94494118245134
C         2.30755224928093       0.02886198769297      -0.66252182081474
C         3.53177894397463      -0.29422335247740       0.20294922741073
C         4.82987576707083      -0.12366189943767      -0.59442845721404
C         6.04987806497642      -0.44968319821384       0.26220904063513
H        -2.43748399342964      -0.11115321419347      -2.03798458342956
H        -2.47306257689787       1.53542032460475      -1.39708276638735
H        -1.11646650995176      -1.66398495914317       1.13058194935203
H        -1.57114050104176      -2.03099800855446      -0.55738046685984
H        -0.08881385976260       1.19956873658406      -1.18520415672261
H        -0.18266757098101      -0.50577260212812      -1.62819446323540
H        -2.64561769504344       0.91150624824666       1.60346750775327
H        -0.96970982631280       0.54254964144566       1.94738737543535
H        -4.71775644918448       0.48314278645865      -1.50623534732872
H        -4.32416017911653       0.90372997170230       0.17964236899682
H        -3.44526311440143      -1.17075331015332       1.74118819329536
H        -3.33321670898408      -2.75549314861134       0.93328806335297
H        -5.27971401346473      -1.35896403727743       0.12994076720913
H        -4.15553956231834      -1.86586949937255      -1.18041098349225
H         1.05192182802986       0.54936954798568       1.00582409319403
H         0.95660647880697      -1.18091817144791       0.50246444278784
H        -0.24773720498646       2.56732408876610       0.59870291134014
H        -1.99333578122641       2.91877756575962       0.24508776629550
H        -1.38128824594183       2.95051357684212       1.91959071354530
H         2.38396799712407       1.07640791829726      -1.02928913929037
H         2.29002974685350      -0.65264700188325      -1.54157843414294
H         3.45877018505231      -1.34304434952694       0.56655675882372
H         3.54983602809625       0.38502216174054       1.08381144666039
H         4.81969781222011      -0.79969257202489      -1.47714662800514
H         4.91355019319631       0.92490385199427      -0.95473549144643
H         6.00394557567466      -1.50230714087102       0.61439939236470
H         6.97328497119767      -0.31675779547281      -0.34000844113622
H         6.09777927513466       0.22937548834926       1.14008239623635
P        -6.20230278885324      -5.34728116335669       4.79575708446885
F        -5.35125526808105      -3.84813693705029       4.75050334672798
F        -7.64832857549972      -5.19496648804543       3.87090922722609
F        -4.65446409650285      -5.56743459318425       5.51409625500061
C        -5.60409273115321      -5.40645541086680       2.95757885039078
C        -7.15979831868134      -4.19909009053057       6.02523758218477
C        -6.47011264531338      -7.08379087065867       5.57489979241289
C        -4.08575083194213      -5.59312776143787       2.74835584366423
C        -8.47912291290259      -4.74324781957677       6.63047963992231
C        -5.61487368042560      -8.24980783556654       5.04481343768940
F        -5.94786494780476      -4.21398990491019       2.33079929630469
F        -6.25364981142551      -6.42024968688232       2.27092387236061
F        -7.49423561383201      -3.01073578008430       5.38297510406090
F        -6.32132287309626      -3.88935752002097       7.08555529909428
F        -7.79563362083185      -7.43709219864390       5.39556320258280
F        -6.22494067364231      -7.00703776084179       6.93612067486863
F        -3.81436704003533      -5.57001715124727       1.39172129850777
F        -3.65326781182218      -6.80291377367866       3.24527406141415
F        -3.36416759649149      -4.57519381273114       3.34472126325266
F        -9.12054753828013      -3.71007605878713       7.29140451826342
F        -9.34151670753647      -5.21881371017419       5.66103388039422
F        -8.24529311847589      -5.73613166512083       7.55940119215495
F        -5.74638831610546      -8.40036956081327       3.68166985116963
F        -6.05039259656454      -9.42205646454312       5.63777916923023
F        -4.28304304971444      -8.08566737150903       5.37783132001324
