42
C10H22F2N2O4S2 optimized with ForceField in AMS.
N        -0.56306518746868       0.31692834931792       0.15123751319371
C        -1.57311050380590       1.23355148733959      -0.46861167931284
C        -0.87582476548045      -1.10443278965074      -0.19037051491131
C         0.76971399474965       0.69795471924397      -0.42541395570115
C        -3.03815780055814       0.86169087433055      -0.17015727427295
C        -2.32004331883741      -1.51426001019745       0.14535735215237
C        -3.31861634894521      -0.59014987372778      -0.54117719670263
C        -0.53853419842865       0.51515715847211       1.62678527011358
C         1.98124401276961      -0.12341727835709       0.08037762461320
C         3.28534998304737       0.40218548146528      -0.53362386945076
C         4.48693110422192      -0.41134628923083      -0.06069256543299
H        -1.46257975296147       1.23623311288729      -1.57822373026046
H        -1.40561770419233       2.28261202994706      -0.13263192125010
H        -0.20556750172828      -1.80165554173435       0.35766739070818
H        -0.71387677681086      -1.28218713103873      -1.27791991890190
H         0.97574807922913       1.77366553388897      -0.21569050034841
H         0.74563042809578       0.59836628075978      -1.53579227786893
H        -3.70488715880536       1.51868651550446      -0.76962314029546
H        -3.29035113567229       1.04150330205122       0.89518660880494
H        -2.48407347515006      -1.50527130327233       1.24390277324933
H        -2.49253169397217      -2.55501541971905      -0.20442509067080
H        -4.35040476208233      -0.86049220710882      -0.22911026205441
H        -3.24703592245637      -0.71550512822427      -1.64423158880032
H        -1.54390668143573       0.42936428332299       2.08181121584102
H         0.08472292156960      -0.25196096276060       2.13279013695664
H        -0.14341255670553       1.52154583381634       1.89012783104624
H         1.86843885210341      -1.18959798750693      -0.20671926339371
H         2.07159378451527      -0.05109071329586       1.18321034967492
H         3.43554708938300       1.46471976814626      -0.24272302166515
H         3.22890847442309       0.34865296388525      -1.64184874024681
H         4.37059822734955      -1.47751608725935      -0.34972052018073
H         4.59002973486530      -0.34019339080802       1.04308559474054
H         5.41180558861544      -0.01529561405754      -0.53025075829717
N         1.91800859590760      -2.52569735726277      -5.20599868026749
S         2.87206216111326      -1.48125932649809      -4.38487794442797
S         0.36373916906179      -2.78025719839204      -4.76338680484949
F         3.20513546922043      -2.11302307371054      -2.87116989092123
F        -0.56474021092156      -1.46779596389675      -5.23012332803710
O         4.15707825902669      -1.27547835093385      -5.13552557981580
O         2.16479558701541      -0.16518703863348      -4.22083810719973
O         0.27275195180224      -2.93666415783270      -3.27133766487969
O        -0.15366712206679      -4.02042263496909      -5.43514098867722
