35
C11H17F3N2O2 optimized with DFTB in AMS.
N         1.71138594574052      -0.01890166757844       1.25845202773869
N         0.41696738092375       0.72307668568969      -0.29344395923443
C         2.52458505735267      -0.90471506416582       2.08568139869590
C        -0.35139474701272       0.77205047397847      -1.53093219689332
C         0.99331307719509      -0.37296414240821       0.19256371443580
C         3.97871706142887      -0.95629102638140       1.59438077175201
C        -1.85216415141810       0.74178329718589      -1.24738072183198
C         1.63684781868358       1.34363750726689       1.41455584854045
C         0.82120043469839       1.80729963226927       0.43424354583054
C         4.17233522560294      -1.94127872216338       0.44561548502653
C        -2.29142901434785      -0.56126985539120      -0.58175941885615
H         2.06820391071390      -1.89849232754258       2.06609372307184
H         2.48252388643519      -0.51747993266120       3.10758754844115
H        -0.03267400020819      -0.08007957082866      -2.13647252629628
H        -0.06684659431261       1.69049369289774      -2.04896170882437
H         0.87269225260608      -1.37084203993758      -0.18716237358958
H         4.28397699185495       0.04490722738814       1.28111960135358
H         4.60196079040110      -1.25264247659013       2.44351138239061
H        -2.11800209928406       1.59014543680081      -0.60896346063173
H        -2.37378127722433       0.85995461442081      -2.20098549340489
H         2.16433433936530       1.85624578117493       2.19946227107150
H         0.51845157657128       2.80726617578587       0.17938757357348
H         3.56382235190004      -1.65668308295728      -0.41179386459577
H         3.89974244360005      -2.95154854411058       0.75494847677339
H         5.21725067077397      -1.93724194451174       0.13797544635296
H        -1.80217559799922      -0.68182300562537       0.38611539741802
H        -2.03635627131826      -1.41586134152907      -1.20951899889648
H        -3.36977820705716      -0.55375261319387      -0.42518407903017
C         2.82785300731881       0.69578483619204      -2.00792498217031
O         2.40230714698659      -0.45104582788201      -1.81555104298231
O         2.24341442934668       1.75832804270918      -2.17461039090868
C         4.43184029595276       0.81465117333853      -1.92481315642660
F         4.95351221168555       1.73831489038067      -2.73806142181466
F         5.06544022207626      -0.34237808136097      -2.17314827041002
F         4.77780449796822       1.16974498554053      -0.65703438736869
