46
C14H12F18NP optimized with ForceField in AMS.
N        -0.49011773953119      -0.00285187397352      -0.39657522862892
C         0.93686460269387      -0.00503609583590      -0.74071972910277
C         1.78791627344129      -0.00401506797849       0.53267362595225
C         3.27702711786213      -0.02445667728267       0.20252682285285
C        -1.14728808462451       1.18571402043236      -0.22881902483074
C        -1.15052915158631      -1.18967180994718      -0.22932250289025
C        -2.50271102645404       1.20516371451016       0.10847323406173
C        -2.50590485041387      -1.20574369906947       0.10801652149924
C        -3.18405177611390       0.00055376275738       0.27653158942811
H         1.18173125293626      -0.89941790135596      -1.35672974525775
H         1.18410371987434       0.88727827805617      -1.35889028176262
H         1.54077620199806      -0.89740300028598       1.14631294902949
H         1.56108757686572       0.90595603867350       1.12955594326313
H         3.53570433629750      -0.95014012228362      -0.35435664334977
H         3.86738050087826       0.00227266942570       1.14255536813116
H         3.54642521767648       0.85963756089109      -0.41225616623157
H        -0.62363729126739       2.12658093755625      -0.35147516080802
H        -0.62940492133136      -2.13189825553161      -0.35223962065518
H        -3.01923276253814       2.14721827795485       0.24023459355898
H        -3.02477159996090      -2.14655907843239       0.23946127358685
H        -4.23396252733665       0.00180382749338       0.53893417733691
P         5.04177312404328       6.04125345285143      -1.82650083161807
F         4.52159389192243       7.21268275092269      -0.67733422690656
F         3.88284037177501       4.77911976983807      -2.01832384917945
F         6.17636001695128       7.31770469556208      -2.03427064868998
C         3.62407128822752       6.92462385182413      -2.81254912901216
C         5.42447590345657       5.30257975602889      -0.07786475480031
C         6.37486829582633       5.20305317345148      -2.94765466911044
C         3.76830062506139       8.45016113381234      -3.06526174506070
C         5.95203888537770       3.85337672121969      -0.02693998836359
C         6.40686022944001       5.61695646636176      -4.43184673602475
F         2.42689172052438       6.75526679415465      -2.12772685709589
F         3.46599626131913       6.31749071839702      -4.04232224528687
F         4.26659838078612       5.30865937240126       0.69493586540915
F         6.37056585254789       6.10134944403720       0.54982324217226
F         6.16006912525864       3.83670584760673      -2.94496336958228
F         7.63955525723745       5.42180113705549      -2.41828444852799
F         2.73901153924757       8.86116754104209      -3.89371993893920
F         4.95619162541689       8.76999079191827      -3.68642919406793
F         3.66928743803331       9.17196848863886      -1.88941473436160
F         5.99278772007053       3.44119260407174       1.29397826513686
F         5.12118267865595       2.98735821797595      -0.71130007531136
F         7.23638179913661       3.76343733046399      -0.52552635539542
F         5.32080052499570       5.09771099339106      -5.10976957973620
F         7.54699123330060       5.09395069475214      -5.01607259110213
F         6.44569925642207       6.98430312064697      -4.58855903352850
