59
C17H36BF4N optimized with ForceField in AMS.
N        -0.52146429813428       1.78414941485144      -0.19822173099454
C        -1.37623845146561       2.32847502435507      -1.30320496381372
C        -0.20059702680208       2.89996997137362       0.75111417341420
C        -1.20742992067752       0.67234579892335       0.54886669474924
C         0.75546603874415       1.31498428864847      -0.83865948373071
C        -2.66168360303963       3.01921641134432      -0.81936986846743
C        -1.44048621406579       3.64599999155369       1.28677157905022
C        -2.32745944172592       4.14779030974480       0.15056683766595
C        -1.52061645807914      -0.60025080797701      -0.27572012038474
C         1.77350617196338       0.62573061780915       0.10468778993346
C        -2.23761102088371      -1.64014293588804       0.59545325777435
C         3.04708069384437       0.24844936927085      -0.66425631034643
C        -2.51765340892840      -2.92598313172861      -0.19127315235780
C         4.05021761798034      -0.48000095648579       0.23901818589567
C        -3.23004743454214      -3.96165681797938       0.68607421598982
C         5.32670789103505      -0.83649059622523      -0.53291017385777
C        -3.48893621698846      -5.25403611898860      -0.08327011379746
C         6.32961262389654      -1.56485447738064       0.35777131399279
H        -0.80429862471293       3.08526810730681      -1.89056316591118
H        -1.64686539612627       1.54189696309137      -2.03669816207756
H         0.35394878125457       2.52231406809055       1.63633564901476
H         0.45621232271801       3.65425561212074       0.25940981248830
H        -0.60066361635028       0.37524710356923       1.43260768820277
H        -2.16524097985444       1.01849278382598       0.98225577946737
H         0.53314883173007       0.61691374026723      -1.67662167771442
H         1.27656047971987       2.17716563395609      -1.31638603527818
H        -3.19076781632972       3.44812325252217      -1.69706849641818
H        -3.35871815343200       2.29388392743312      -0.35178997244281
H        -2.02665613617566       2.99996832770661       1.97272468663249
H        -1.10218463772651       4.51918234298951       1.88507086101227
H        -3.26767974714915       4.56493350493106       0.57083563364314
H        -1.80340818465113       4.96260733788937      -0.39536905278318
H        -2.18313272626774      -0.36035915897819      -1.13127960651305
H        -0.58640735457308      -1.05550882374897      -0.66298517156383
H         1.34269880242395      -0.30225121450632       0.53270988970118
H         2.05846178422740       1.30267587130409       0.93516336376841
H        -3.19972886661288      -1.21496902926129       0.95778710422151
H        -1.60670132982100      -1.87999756874949       1.47920589447704
H         3.51862578817922       1.17225501236323      -1.06683490344718
H         2.77959508696499      -0.41156388360894      -1.51901905166470
H        -3.15499904406673      -2.68851498963351      -1.07135355734672
H        -1.55694100186576      -3.35051764177615      -0.55677988628213
H         4.31185629849565       0.17298666798131       1.10060894781653
H         3.58420251145559      -1.41176615602575       0.62928466383063
H        -2.60683844514425      -4.19249757990547       1.57699629139761
H        -4.20174714140198      -3.55101003263304       1.03638547537504
H         5.07329701719115      -1.48993416240480      -1.39580130578560
H         5.80082431420481       0.09068537943342      -0.92214570845206
H        -3.99469335675899      -5.98633570687532       0.58077989678040
H        -2.53132668507485      -5.69496512703152      -0.43298843590998
H        -4.14302888982979      -5.05700730559250      -0.95907480169770
H         6.62199745686048      -0.92325165892694       1.21607748522886
H         5.89186485584326      -2.51192898966777       0.73887425348252
H         7.24050698485556      -1.80674482743760      -0.23001210837288
B         0.88311545742410      -4.46578150548865       1.58314760299437
F         0.79881869340466      -4.51142838810733       3.00011615142254
F         2.14584078401797      -4.96377596564655       1.16667054515767
F         0.73760017747270      -3.12390842865182       1.14293226502225
F        -0.14688509695004      -5.26622885124545       1.02289879610860
