61
C17H24F18NP optimized with DFTB in AMS.
N        -0.13242059313336      -1.42022185381352       0.58439990973872
C        -1.14360539128644      -0.46515216809377       1.15103078910688
C        -0.83879957163768      -2.67758355857326       0.13621076032312
C         0.92543945792613      -1.72719937194770       1.62188911952507
C         0.46370565336106      -0.80170987357481      -0.64974796268081
C        -1.98991119714513      -1.07636776147996       2.26152279512324
C        -1.72955580125903      -3.29939297191143       1.20385121507754
C        -2.74321586389916      -2.29747740172526       1.74136449000718
C         2.24507097711698      -2.27095820886397       1.07275259909167
C         1.15252629403774       0.54528044477010      -0.42759267376056
C         3.10536265130019      -2.76387398533865       2.23697699252508
C         1.95145013677544       0.91945283849032      -1.67616665818434
H        -0.60419121591266       0.40740727164156       1.52371426611159
H        -1.78803408144043      -0.15649358906366       0.32236195742236
H        -1.44435411235562      -2.40122156748052      -0.73172737601381
H        -0.07201298881462      -3.38583422303499      -0.17799614848053
H         1.10949398764196      -0.80277929213055       2.17527834679163
H         0.49451425954210      -2.45725765862608       2.30704681608949
H         1.16581233833561      -1.52811653630146      -1.06340654815190
H        -0.35211676961132      -0.67585953510907      -1.36658819373029
H        -1.36154441025238      -1.35423607123752       3.11132539196082
H        -2.69096441925758      -0.30775663076596       2.59726103407363
H        -2.23500604239700      -4.14904366680200       0.73930606966903
H        -1.13348758403839      -3.68795683853977       2.02859518915676
H        -3.31576180429226      -2.75245019995734       2.55228182016631
H        -3.44175423892085      -1.99619196613762       0.95362164095366
H         2.06349802937089      -3.09895403598844       0.38651543148232
H         2.78949270697126      -1.49033202794253       0.53443261199667
H         0.40665350371313       1.32107075923951      -0.23441330407845
H         1.82571025293616       0.50303976036390       0.43103103728461
H         4.06338667443313      -3.11238183098667       1.85358692910662
H         2.61627106768947      -3.58945665146468       2.75085000352160
H         3.28366581404951      -1.95841589488735       2.95055640537921
H         2.41870295648123       1.89292571109374      -1.53320870512332
H         1.29855769327997       0.97026681236188      -2.54782735958021
H         2.73191767425817       0.18239704531216      -1.86582565828956
P         0.66250435316059      -6.30705925161171       1.90469001894438
F         0.81430681835668      -4.66995214758197       1.41643589105338
F        -1.01735958476706      -6.15256291357516       1.98206809490017
F         2.33240935728556      -6.42364525574864       1.80419401797653
C         0.44988164870480      -6.57370184394207      -0.03714962181768
C         0.74359790813240      -5.54835550018843       3.75641348418773
C         0.61878441526406      -8.18259147498354       2.55887696893537
C         1.65822486747857      -6.32641863103223      -0.97815008491339
C        -0.10787457460177      -6.08263207038303       4.94854283194848
C         0.91982701519234      -9.44475796016397       1.70081481837914
F        -0.48942782230605      -5.69147192311565      -0.46844858770130
F        -0.03033942166645      -7.79652169861744      -0.31048851192976
F         0.32087482662960      -4.25256334848091       3.67169307059288
F         2.01511165974212      -5.49395025781354       4.18164979125973
F        -0.55742009421825      -8.40650013241832       3.17143181532591
F         1.57086773745812      -8.17290334635540       3.51790148093186
F         1.28780263577946      -6.49784872140823      -2.25026961183109
F         2.68243912911795      -7.12922850956805      -0.73900295883311
F         2.08329802750422      -5.05856834854893      -0.86371824648747
F        -0.04377336483424      -5.18404863164908       5.94165228793430
F        -1.38890517066551      -6.20097422886374       4.60730399393569
F         0.31039806933925      -7.23820629666861       5.43863880734572
F        -0.17205263781959      -9.88820954100709       1.08862467368029
F         1.37632203197724     -10.42721057345611       2.47612054224700
F         1.85129902428973      -9.18761307231278       0.78310130112419
