33
C9H14F2N2O4S2 optimized with ADF in AMS.
N         1.42546711266716      -0.40199239976151       0.42463746392517
C        -1.00556675766077       0.19306102786378       0.48078737135963
C         0.11599899230158      -0.62871067975161       1.09961492515157
C        -2.33502045012612      -0.09535782230731       1.18187621323849
C        -3.43333145700515       0.85240667866516       0.70809210430382
C         1.95802200418115       0.83836061605386       0.44158504445040
C         2.08918564980941      -1.43577529118905      -0.13942765380836
C         3.21257216011249       1.07065250291987      -0.09384363541390
C         3.33749900960509      -1.24830931632868      -0.69975011130782
C         3.91644032216277       0.02033591017631      -0.66922938577780
H        -1.07915426488368      -0.02943043980464      -0.59945161769652
H        -0.78251426783590       1.26758718938760       0.58887836090116
H        -0.09038876658752      -1.70628104979819       1.02705641921196
H         0.26206153934355      -0.36771049496591       2.16038496273539
H        -2.62752993532032      -1.14591218427882       1.00062224897803
H        -2.19395095754622       0.02234364531170       2.26943852111554
H        -4.38940758487859       0.62478409069962       1.20236996017413
H        -3.16454834716940       1.89115225484387       0.95397630621414
H        -3.58625719429686       0.77758624984385      -0.38081184808822
H         1.38816429550771       1.61471956056722       0.96034014327058
H         1.59003314141871      -2.40188673235145      -0.10800280189680
H         3.63020948213355       2.07299956833729      -0.00436434715203
H         3.85507851519716      -2.10040178210294      -1.14027005827889
H         4.91418413418509       0.18219024035393      -1.07994379658536
N         1.11689871662459       2.58116473201786       2.79839109928540
S         2.45803566035036       2.06221673204618       3.52404182346539
S        -0.34319071526481       2.33962203660860       3.44805271392691
F         2.37344967475521       0.39136026110206       3.27245917988438
F        -0.34538644430511       3.29104295503171       4.77644345135096
O         3.56966367939476       2.44677189854232       2.67051208823470
O         2.51757175930152       2.19201041129312       4.96175494184068
O        -0.56924871712784       0.99480746551328       3.95689960398410
O        -1.30571800944356       2.94030757866090       2.54437644980317
