34
C10H22ClN optimized with ForceField in AMS.
N        -0.10886258119368       0.01201983673111      -0.07763772987625
C        -1.02000505798375       0.55496873626408      -1.13791505323492
C        -0.63620052540424      -1.31609304188695       0.37883861659024
C         1.22987436864803      -0.20388144109256      -0.72927917776308
C        -2.49355880476682       0.65875588823496      -0.70723585877387
C        -2.10833550600856      -1.28489606329997       0.83538012661944
C        -0.00683182453700       0.94532349299623       1.09893372884299
C        -3.01328664360161      -0.69841111405706      -0.24391944017433
C         2.36635604120848      -0.67698360275741       0.21160266781172
C         0.61802908990228       2.32178911275489       0.80533760439178
C         3.66165986907213      -0.89111396905165      -0.56761175302568
H        -0.99344717758275      -0.10209909027723      -2.03906833949245
H        -0.68223118023969       1.55037787617496      -1.49472610703083
H        -0.04357479074416      -1.70916198958949       1.23220743876516
H        -0.55728227016870      -2.06961157028729      -0.43862479774661
H         1.56679420703745       0.72427394635774      -1.24307094159094
H         1.13827375364101      -0.95832877845749      -1.54539275837589
H        -3.09874742661919       0.99436469417417      -1.57737348381502
H        -2.62916282292060       1.42050374135647       0.08803627851813
H        -2.21839592308608      -0.71351562979208       1.78052479049382
H        -2.43762079641551      -2.32484876915040       1.05063928982179
H        -0.99950681979758       1.14148096613084       1.54836676893578
H         0.57138668271070       0.47344192925720       1.92286581854476
H        -4.04310409157945      -0.58364601351847       0.15813980092541
H        -3.05679292124526      -1.39527726478754      -1.11013509622169
H         2.57330552635902       0.07738486314433       0.99753493134098
H         2.10385922119080      -1.63733744143708       0.69898603311994
H         0.68250169655813       2.89044710001419       1.75656601665742
H         1.64878147213435       2.24088745424462       0.40767158235925
H        -0.01005180539730       2.91674771547616       0.11254342574191
H         4.46385239603304      -1.21560111069724       0.12844662950869
H         3.52301312975656      -1.67725760990265      -1.34031436865631
H         3.97865615435895       0.05450694785455      -1.05710344332380
Cl        0.61454451628103       6.01263174887606       1.73928566491244
