41
C11H9F18N2P optimized with ForceField in AMS.
N         1.09304472219481       0.00538269903662       0.01207402181912
N        -1.12888819482007       0.02493573898016       0.01137097206073
C        -0.02478315624602      -0.74589717709252       0.04658102355370
C         0.68357599101256       1.28784567610541      -0.04122346015573
C        -0.69702354778023       1.29998988704535      -0.04160642744759
C         2.47188390699755      -0.46631993462537       0.01768268667145
C        -2.51538958050286      -0.42334419657775       0.01581858081125
H        -0.03506605733034      -1.82759500414288       0.09567103423137
H         1.33778820337223       2.14936435158922      -0.07935743016009
H        -1.33607316147992       2.17275704854888      -0.08039845020323
H         2.50438342315143      -1.57610294349556       0.05660073978475
H         2.98634059180712      -0.12512680821858      -0.90523629783360
H         3.00189174154153      -0.05954255393117       0.90440054061637
H        -3.03787074520866      -0.01195359275878       0.90475439319639
H        -3.02451280829714      -0.06952840798958      -0.90526905893838
H        -2.56620415658843      -1.53265542012697       0.04974086314557
P         0.37163524522514      -2.42653865513438      -5.58588396287483
F         0.40196009555673      -1.36655054698676      -4.22868494499964
F         1.81827938398666      -2.31040140904020      -6.51566852578603
F        -0.98754605472060      -2.93230976325347      -4.65994928166471
C         1.67553000315567      -3.32214949933348      -4.46471442756105
C        -0.07345168024529      -0.66376192946870      -6.25391226313282
C        -0.53443191408462      -3.58904367477325      -6.83505755696549
C         1.20568358276948      -3.79865915457650      -3.06556111822991
C        -0.23690547490258      -0.50802640280125      -7.78125119894808
C        -0.46146462033863      -5.10518334799989      -6.57395736682057
F         2.74493436454212      -2.46266700964081      -4.24345050215421
F         2.18067226675397      -4.42417488730813      -5.12576078539101
F         0.92399398581760       0.23620735539513      -5.88922823276731
F        -1.26525287677742      -0.25000838096517      -5.67492355756010
F         0.01243577856779      -3.39964020111018      -8.09140900731855
F        -1.87573928274977      -3.23987610487888      -6.90875902332456
F         2.23623643965181      -4.50187803049955      -2.46698469940337
F         0.11436110130070      -4.63701114639165      -3.13811033156850
F         0.89753351991678      -2.73096595101701      -2.24431275081514
F        -0.38418703635524       0.83603473182402      -8.07648916304500
F         0.87535049032231      -0.96776112316636      -8.46095904291638
F        -1.36766403798601      -1.15325337885359      -8.24038900942590
F         0.81188448018012      -5.58563391063934      -6.80911545524258
F        -1.31437639803058      -5.74782057711274      -7.45433470427330
F        -0.85739103707970      -5.43026936831437      -5.29580068996301
