29
C7H16BF4N optimized with ADF in AMS.
N         0.36921844770533       0.13999483088797      -0.42166014649912
C        -0.42372630051128      -1.05840514090645       0.04578670215402
C        -0.47665262904519       1.31310904730954       0.05047771842426
C        -1.88454630184364      -0.69102262833629      -0.21066111625040
C        -1.92793764813347       0.85892938879757      -0.12948406837899
C         1.74526562313774       0.21172953412920       0.21805923728621
C         0.46443860841424       0.16022885755718      -1.92148657114345
C         2.72329907466587      -0.81315200991699      -0.31452090789691
H        -0.21902297630807      -1.16119966851116       1.12227666669179
H        -0.07860649219162      -1.95910535155997      -0.47734251411259
H        -0.17936038856066       2.20276556279264      -0.52204145858800
H        -0.21549396292807       1.46587887387478       1.10767044568757
H        -2.53441233965103      -1.17167464975078       0.53506338228094
H        -2.21039411149150      -1.04513045312309      -1.20001172259474
H        -2.36672992232594       1.29066063242127      -1.04105423612664
H        -2.53503878524840       1.20903984891403       0.71769458341212
H         2.10550801375796       1.23602948267975       0.03775419512556
H         1.56260591237994       0.08125643922041       1.29697250560585
H         0.88509406144193      -0.79415137748479      -2.25948928473575
H        -0.54266349617404       0.29750498381238      -2.33197288918275
H         1.10436977246847       1.00489834962867      -2.21033180820431
H         3.62890250620499      -0.76796151908828       0.30823595058146
H         2.33912939174258      -1.84374367096272      -0.26566060097008
H         3.02999571438009      -0.57249487667139      -1.34175367150028
B         2.04049451960370       3.40437518010573      -1.49033338307387
F         2.81420952337695       2.25259465158184      -1.88457071392825
F         0.73566490242625       3.26634743472137      -2.08831962676739
F         2.65551533219864       4.58645974166262      -1.88165001806835
F         1.87054473690825       3.34152583941497      -0.06515724672792
