21
C5H9BF4N2 optimized with DFTB in AMS.
N         1.10368461713301      -0.09569739923191      -0.05284315940831
N        -1.03943859853974      -0.23518290745892      -0.04692322675180
C         0.08071499033573      -0.93909052387118      -0.12917039469014
C         0.62751194319366       1.18306470200510       0.07929841054844
C        -0.72968643234289       1.09302101646557       0.08333549262384
C         2.49145130179870      -0.52570149140574      -0.09125522429492
C        -2.36617208906095      -0.83153445227689      -0.07464825436492
H         0.15741178454075      -2.01125349171236      -0.22900872485187
H         1.27934729429909       2.03543834176033       0.15903467073777
H        -1.48523024289721       1.85461979493868       0.16738169021370
H         2.50068037592136      -1.61317925253328      -0.17552185568356
H         2.98954413788179      -0.07753927227787      -0.95129868110411
H         2.99314753004758      -0.21722399644839       0.82613949334634
H        -2.86766438353660      -0.63580138945334       0.87305088371255
H        -2.94006231719616      -0.39895181157791      -0.89388446925368
H        -2.24389326644891      -1.90536934108535      -0.22035979186842
B        -0.37526719211686      -3.97053174875313      -0.17416069360548
F        -0.56328735103164      -5.31615723658139      -0.16891320410773
F        -0.99745307823661      -3.33999739468632      -1.28551499174551
F         1.00680365795615      -3.62309964085701      -0.22462029801838
F        -0.91751022360027      -3.34059730205869       0.97460764506619
