58
C16H22F18NP optimized with DFTB in AMS.
N         0.25977035327692       0.04564959088935       0.94609522978632
C        -1.16474146527458       0.24425552906327       0.52835140048954
C         0.59470292703003       1.34541343867667       1.61950026162311
C         1.12814135830782      -0.18438088169516      -0.25694336892720
C        -1.81750899566136       1.01908837015147       1.67180071510378
C        -0.66169596956402       1.73108171471712       2.39194982950425
C         0.36591573591183      -1.07411165443138       1.94661707506514
C         2.61013429931900      -0.33960128298729       0.07656062927311
C         0.12682762472791      -2.46488670549234       1.38373040081532
C         3.42629807041424      -0.54972663489305      -1.20305147087468
C         4.90094620500342      -0.75300248719390      -0.85851282020288
H        -1.63179731052034      -0.71993592643419       0.33112540389655
H        -1.16038656344417       0.83401831007855      -0.39126224795789
H         1.46442617723100       1.22095184673026       2.25967174813924
H         0.81701419818978       2.07316118107721       0.83588771406948
H         0.74780509393720      -1.07453301993758      -0.76409414223804
H         0.98117510623392       0.67464035564047      -0.91804658907178
H        -2.54385269397203       1.72938010707045       1.27329744417649
H        -2.34163639014142       0.34326141715389       2.35018540324367
H        -0.58777932327940       1.40420356896582       3.43056269411170
H        -0.78870626010338       2.81452461674451       2.38524801025920
H         1.36577306988877      -1.02291437567349       2.37113190306905
H        -0.35249979895898      -0.86156935446547       2.73918851267464
H         2.97099598821474       0.55341048861048       0.59012030431767
H         2.76477439293060      -1.19359618881351       0.73807841118093
H         0.14522459382669      -3.15646002988200       2.22601740357254
H         0.91295678822353      -2.76016267897937       0.69117108654331
H        -0.83890980619815      -2.55444199561205       0.88791311477610
H         3.04775898951630      -1.42639622730887      -1.73995970125713
H         3.31368651284074       0.32091900332625      -1.85828607492015
H         5.02369691939170      -1.63179273938807      -0.22562087110701
H         5.28993992563066       0.11413836099817      -0.32465648843229
H         5.47970973200469      -0.89287135029216      -1.77117399311217
P         3.98131115427408      -0.01235689038406       4.32329723246265
F         4.36370000504042       1.60315753491867       4.22756188965212
F         3.05409338562018       0.07319377958279       2.86896339976947
F         4.86142905972930      -0.19387880073020       5.72200303484926
C         5.54197593150458      -0.27746563398413       3.16284141027959
C         2.41325228359566       0.72914734879516       5.32463662965890
C         3.37219627780663      -1.94450536888997       4.46150827068725
C         6.93274253959512      -0.42209240855675       3.82822364074425
C         1.16753611703412       0.02521973428005       5.94076055759801
C         3.72781984177292      -3.16383231922828       3.56838296226497
F         5.62104062387112       0.74885729014926       2.29665151374780
F         5.36050119476406      -1.38182918653311       2.40696579522646
F         1.84694108866951       1.62803562480679       4.47104455713433
F         2.94818511748200       1.43378447225510       6.33152248952907
F         2.02071228772316      -1.84617988401625       4.27472412550850
F         3.55526780071215      -2.35301097960788       5.72679268444299
F         7.88108879154614      -0.56612103449636       2.89953077598043
F         6.95985936849308      -1.50003152801424       4.60983120243845
F         7.23310196377617       0.64319686015064       4.55978951466369
F         0.55338992139685       0.87786327070648       6.76340287296849
F         0.27619752244941      -0.27390727750960       4.97469965982298
F         1.43366209686358      -1.07332070983197       6.62556817713724
F         3.38682836572562      -2.92365536093968       2.29254473240513
F         3.00690805017209      -4.21748964607923       3.96305377420317
F         5.00406915654835      -3.50921136995724       3.61908893083474
