39
C9H20F2N2O4S2 optimized with ForceField in AMS.
N        -0.41743434118133       0.14932258513406      -0.06945188081341
C        -0.98826131203137      -0.92616055672646      -0.93796033716201
C        -1.46883363888949       0.41412891663381       0.96090418961792
C        -2.45249125190670      -1.09820069522681      -0.58161681604747
C        -2.51969296355804      -0.67485034574401       0.85832418331956
C         0.83093058801138      -0.33708686510043       0.60373232684538
C        -0.17863727318868       1.37921192938060      -0.89218877891568
C         2.00880689401473      -0.61665097599522      -0.36097241232206
C         0.44008991453389       2.55646783845901      -0.11729952912532
C         3.16296165842387      -1.30272466103751       0.36487007229744
H        -0.49673188862481      -1.91145040504953      -0.76672067244260
H        -0.88682835627203      -0.71390236185555      -2.02666041762759
H        -1.99152551428757       1.38376353005737       0.79068199447567
H        -1.06802588826659       0.45602174239233       1.99944009619064
H        -2.79393540600338      -2.14797754962465      -0.71496705093676
H        -3.07550489598970      -0.41909697352659      -1.20504783824001
H        -3.53312937264993      -0.30476285654844       1.12796916372578
H        -2.24515801128065      -1.52844995332481       1.51715509923174
H         0.60673776400711      -1.27060578697591       1.17070854782398
H         1.17380897559568       0.39610492231608       1.36723917662423
H         0.48043416854863       1.15371242308524      -1.75915799682370
H        -1.13854298033168       1.72994473891469      -1.33634984008343
H         1.68938019387931      -1.26453551944515      -1.20279738572655
H         2.39442726733625       0.33325663818254      -0.78466010089871
H        -0.13015584884169       2.78800858722506       0.80486743728543
H         1.49634333800612       2.35146070074067       0.15069010466332
H         0.43119399089364       3.45860830298035      -0.76417312153916
H         3.53141722434739      -0.66344823043222       1.19507784017187
H         2.83627724663646      -2.28264697112902       0.77286559066223
H         3.99808209965869      -1.47655302403955      -0.34634470941865
N         0.04723662822166       7.97255191443518       0.12828286968587
S        -0.88309426421288       9.24864565112553       0.55519525959534
S        -0.04651107353928       6.54332852876137       0.91973846108662
F        -0.37740804197129       9.82585164615946       2.04268256002597
F        -1.35803020803726       5.68106981744010       0.33873168967373
O        -0.75042133932323      10.33388357097611      -0.47518657883057
O        -2.32065121377496       8.82243461675999       0.66149300502158
O        -0.22783679836928       6.77509751121150       2.39403953926529
O         1.21076257681703       5.75686479991081       0.68054485996408
