61
C17H36F3NO3S optimized with ADF in AMS.
N         0.06604844725698       0.52319808694748       0.33745530115940
C         0.90875695046343      -0.68134957233945       0.69272312691494
C        -0.78500752993492       0.92011382809959       1.53304944585956
C        -0.81650075393344       0.17414718698356      -0.85647559025406
C         0.93289555483647       1.71827863814335      -0.04480844785184
C         1.91573405069516      -0.48309002227212       1.81327241459610
C        -1.81889814946967       1.99842266666438       1.25969054588244
C        -1.88220837477369      -0.88157627391108      -0.61355167288312
C         1.98064552365634       1.45904021432330      -1.11321648571838
C         2.72459700435585      -1.76610110410211       2.02270422020955
C        -2.58691439657175       2.32242525930800       2.54266466760131
C        -2.75997756735065      -0.98832340248088      -1.86665888379091
C         2.56792671827689       2.79933123482168      -1.57155267179101
C         3.74424319975550      -1.62858693897550       3.14890012910561
C        -3.64610751838048       3.39517628248315       2.30220546538853
C        -3.88649743362702      -2.00137753706458      -1.69510315294210
C         3.55717925767450       2.62469399206040      -2.71807111506462
H         1.42389301559316      -0.97333991867757      -0.23435438566226
H         0.20492074413300      -1.48479899510600       0.95299311913661
H        -0.07943661432006       1.25837074257944       2.30547988538476
H        -1.26275977403716      -0.00376739873624       1.89419550559020
H        -0.13220898764892      -0.15530963161996      -1.64951885720797
H        -1.28892424742202       1.11171590959491      -1.19014079518082
H         1.39741994900611       2.07418607564159       0.88715065331430
H         0.23643514602107       2.48803910816849      -0.41397072853064
H         1.40733768835675      -0.22438284455934       2.75674377489409
H         2.60633989246237       0.34213337273638       1.57386638376575
H        -2.52832913029817       1.68186197488304       0.47954792548804
H        -1.34258878624857       2.91325883138223       0.87284369710678
H        -2.52795825111505      -0.60282588323043       0.23599509482106
H        -1.44402121190536      -1.86976280136324      -0.38658365394107
H         1.52375925908017       0.97850085070905      -1.99276879889494
H         2.78995723743959       0.80062540204104      -0.74954415746909
H         3.24039891196841      -2.02763940048030       1.08098556553549
H         2.03424829428444      -2.60015739208682       2.24384069012148
H        -1.88061548256278       2.66191382146114       3.32304510052915
H        -3.06558103857363       1.40339160538652       2.93061618876280
H        -2.12953712834146      -1.26670272442442      -2.72996946956648
H        -3.16927727255768       0.01040053069410      -2.09301191590634
H         3.05868047172331       3.29813872328539      -0.71520644269389
H         1.73623022273074       3.45158535524346      -1.88576112704539
H         3.24729054308838      -1.39112018661293       4.10313023841088
H         4.46290743538950      -0.82201343242937       2.93339937959438
H         4.31365458501827      -2.55922680590171       3.28770564569777
H        -4.36698890403397       3.06656828251488       1.53724344742271
H        -3.18238684025883       4.32480223289676       1.93697219577984
H        -4.20106206152105       3.62507930256910       3.22370939847666
H        -4.53418658343036      -1.72702126751618      -0.84653737367435
H        -3.49258627024469      -3.01365654986076      -1.50732391141004
H        -4.51793595022943      -2.04539187904648      -2.59443460924480
H         3.05839623156796       2.16775745055423      -3.58781498865911
H         4.40329326007206       1.97961675736493      -2.42830320598233
H         3.96387762324136       3.59452557986529      -3.04001108629827
S        -1.79826320890514       3.63824135366197      -2.40531931359464
O        -2.59500040768601       2.43680593831790      -2.06269073827944
O        -0.68864096753736       3.89805216315664      -1.45438568984675
O        -2.54539084864279       4.80848471798499      -2.85402060826789
C        -0.87475473395258       3.08417055102310      -3.94975690060067
F         0.02427710822917       4.01733860853072      -4.35930616081613
F        -1.72120266427041       2.83537549747603      -4.97901905284293
F        -0.16881837079183       1.92339981113927      -3.71557173743792
