29
C7H13F6N2P optimized with ForceField in AMS.
N         0.06660390146289      -0.60284049139986      -0.42849250433735
N        -2.00205845787750       0.13230195303836      -0.08335958393111
C         1.43412329724085      -0.69867204294556      -0.93527901740039
C         2.45476045075886      -0.39575347188505       0.16784533558939
C        -0.84712735894251       0.33478137496855      -0.74585634350438
C        -0.53283903862682      -1.42776061094670       0.45472152710112
C        -1.81648414592526      -0.96881314515151       0.67082663292738
C         2.33146303203070       1.03895142270976       0.67910856043523
C        -3.20672299613080       0.94929318428675      -0.14396878797135
H         1.57944582624334       0.01361130412067      -1.77666848887297
H         1.60781665335262      -1.72354211244829      -1.32847756829666
H         2.32114633745792      -1.10382176600200       1.01405734652424
H         3.47753387042959      -0.54156168553152      -0.24199961149160
H        -0.66946395577826       1.15435783155098      -1.43141483571903
H        -0.07138270015288      -2.29513661727625       0.90863205213892
H        -2.55620332299328      -1.40134746426170       1.33186426428560
H         1.35314182240409       1.18884284502279       1.18355487111780
H         2.42413184190033       1.75856171988095      -0.16207694071345
H         3.13968484813618       1.24349882244647       1.41235524151727
H        -3.06719931347452       1.79746213864765      -0.84802177301926
H        -4.06061630297247       0.33045568148712      -0.49073412761198
H        -3.43264853441303       1.35369669704632       0.86497269351125
P         4.50528968727919       1.10399711692241      -4.12832405792971
F         4.98091933958864       0.08282856235426      -5.42563960293950
F         3.11489669880887       1.62590177207499      -4.99230196046937
F         3.66222324714858      -0.25286822249328      -3.49713426335437
F         3.96644098804861       2.12388475057139      -2.85484114007470
F         5.86116378005948       0.68738054169340      -3.15895794017562
F         5.45172035363658       2.34227560361890      -4.85173128523537
