39
C11H14F6N2O4S2 optimized with ADF in AMS.
N         2.95646254386186      -0.70846960659089      -0.48081678994735
C         0.86723238634589       0.44919995248287       0.21930904449800
C         2.05524946745654      -0.39823652772615       0.65505989746633
C        -0.04413779993793       0.74082320676653       1.41149280580757
C        -1.25034826103059       1.59530882668051       1.03482522345063
C         3.75781239688864       0.27013632208092      -0.95246241436425
C         2.98905241818146      -1.95160878148230      -1.01043783650997
C         4.62765954719953       0.02184929070797      -1.99739213614619
C         3.83763546494898      -2.24403313823152      -2.05756034109664
C         4.66840352639871      -1.24604934349110      -2.56277303232398
H         0.30454432297246      -0.07792280953007      -0.57308052558932
H         1.22471161435379       1.39972108422268      -0.21555619112214
H         1.72673953364339      -1.35954150934702       1.07224348278846
H         2.68372301616336       0.10548400298493       1.40683196703350
H        -0.38787943102545      -0.21435508357175       1.84788878780581
H         0.54431814203328       1.24850458684761       2.19609160099947
H        -1.88031401274052       1.78976519606426       1.91510662164058
H        -0.93464498500007       2.56776575236268       0.62425559774660
H        -1.87337017983361       1.09352264799909       0.27718564170048
H         3.71631622578279       1.22413005627872      -0.43312822901128
H         2.34279375663937      -2.69001588387402      -0.54251808330854
H         5.30030407054362       0.81835705188893      -2.31100730327592
H         3.86417873292175      -3.26021541174801      -2.44999904775324
H         5.36492173928987      -1.46601728131475      -3.37311428821890
N         6.49732165888603      -0.94337789626733       0.92799339907622
S         6.05565382687229       0.55618830124120       1.29828591039308
S         6.60285926419661      -2.10961021605458       2.04653737784035
C         7.33899260906008       1.28715346173939       2.51992859744376
C         4.99925305910869      -3.08932649584357       1.83767396496167
O         6.24734422027487       1.35707877643272       0.08400605033212
O         4.76595253581705       0.69451717401981       1.99451776117669
O         6.54848131697285      -1.64442560891571       3.42671897716360
O         7.59646801139696      -3.07588959166681       1.60990961188403
F         7.52468902306616       2.59026553385601       2.19869103916077
F         8.51847110994773       0.64255109640525       2.41279467969150
F         6.90163700227074       1.22140665291071       3.78880821265932
F         3.88822246700904      -2.31589122372775       2.02320711520371
F         4.95749624541335      -4.09214478823302       2.74151411125219
F         4.90730698835038      -3.63866456935646       0.59256294349128
