31
C11H14F3NO2 optimized with DFTB in AMS.
N         1.81503191049920      -0.20116205224694       0.59357027555575
C        -0.21138099293708       0.46298039067524      -0.64833541708251
C         0.38106434196810      -0.45869117605206       0.42326478192534
C        -1.69956174793763       0.16749995532721      -0.85006746905901
C        -2.29279527102798       1.06874574808646      -1.93146649855299
C         2.20189340057198       0.95086404836831       1.20858791411117
C         2.71448064293741      -0.99369295930945      -0.05061447636683
C         3.52017568007037       1.24768110078509       1.36900164194332
C         4.09389077551647      -0.77458715037069       0.21686799028469
C         4.49218136801700       0.34660196713013       0.88113417602605
H         0.32743919492277       0.31521539102157      -1.58718441956018
H        -0.07734016586468       1.50530576172370      -0.34327547385739
H         0.25749140149575      -1.50623218462677       0.13663659366769
H        -0.11222229051093      -0.29663612833741       1.38711722339864
H        -1.82576811307407      -0.88106312558343      -1.14020935420534
H        -2.23721560967101       0.32140695237487       0.09233583973268
H        -3.34990031431584       0.84072430830216      -2.06817463273033
H        -2.19597873852843       2.11797181695429      -1.64967583209675
H        -1.77688001792238       0.91474182730099      -2.87954503746291
H         1.40735439777703       1.57451499361048       1.59985245494823
H         2.36761204886029      -1.98878642198718      -0.30731904720145
H         3.81233370018705       2.15290018830566       1.88415281647514
H         4.80774339638844      -1.47738870958142      -0.19032161971466
H         5.54269538287096       0.54277926630570       1.05838013441685
C         3.41501781476510      -0.09004370669335      -2.58796784927125
O         4.60158066810744      -0.16388015766064      -2.37890163017612
O         2.43033044484491      -0.44987998508190      -1.88664668248125
C         2.92403339920706       0.56594041537008      -3.95868382715691
F         1.87295153860934       1.37548662335393      -3.75305381291163
F         2.53706457961092      -0.37595588229419      -4.82998412721334
F         3.88036600376246       1.28982683762952      -4.54058231828467
