32
C10H19ClN2 optimized with ForceField in AMS.
N         0.39170480150111      -1.55181226340460       0.39519893082441
N        -1.74615094739974      -0.94984598942635       0.27988719700140
C         1.78006297962404      -1.63340698827848       0.84524364246789
C         2.68123494557028      -0.70341252503941       0.02298651834088
C        -3.01502714946042      -0.29392759869113       0.59205787117580
C        -0.62239790071793      -0.92490991401390       1.02299458535574
C         2.28884057158809       0.77069564254983       0.19832987345677
C        -0.10902942711849      -1.99679427654726      -0.77502992586792
C        -1.43681485119872      -1.62517272948276      -0.84558443946367
C        -3.27613105708968       0.88621360830661      -0.35299523442898
C         3.23798550771297       1.69164605458350      -0.56131178678174
C        -2.19251398607019       1.95896179136173      -0.24670078937199
H         1.84949170040755      -1.35858984782507       1.92115111043950
H         2.13849254509116      -2.68000805622699       0.74408548509883
H         2.62471799649527      -0.98518900710934      -1.05154241662096
H         3.73142352667237      -0.84602958577779       0.35862768280673
H        -3.00824684548424       0.06970813039369       1.64314433692485
H        -3.84156469363056      -1.03083190380323       0.49671358431900
H        -0.52945233389621      -0.41418293906165       1.97360913737230
H         1.25788940243953       0.93724978441186      -0.18115223219322
H         2.31410220609991       1.04021840511642       1.27659842547875
H         0.45536418916667      -2.52519361695058      -1.53246748817889
H        -2.11638417222042      -1.80585417909756      -1.66816030751890
H        -3.33773514594535       0.52472659447819      -1.40223011007280
H        -4.25563990442606       1.34264701207849      -0.09283563398747
H         3.21944922840120       1.45388545530770      -1.64649253579031
H         4.27388033843649       1.57969951231537      -0.17632675946217
H         2.91946416000462       2.74641310104819      -0.42146901393532
H        -1.21816099265933       1.56456001668180      -0.60532055985854
H        -2.08503961157981       2.29901090346144       0.80528352586380
H        -2.47036266092396       2.83007810754442      -0.87638160271702
Cl        2.68956006490983      -5.41654097160313      -0.69153468277675
