31
C9H20ClN optimized with DFTB in AMS.
C         2.73219039136848       0.32294770641122       1.48931675447461
C         1.73251661154400       1.28672825198778       0.84802315731840
H         1.37763619867837      -0.79184273517095      -0.84807881870007
H         0.26389795499123      -1.62265145496869       0.29813547982067
H         3.01132730247051      -1.66663400379464       0.61771618973381
H         1.92874446677891      -1.63290219407592       2.01435801354908
H         2.76248794085096       0.45600663197715       2.57240392096076
H         3.73326258195223       0.51143253353545       1.09720759037615
H         1.47524541353366       2.13771350497123       1.47977898305845
H         2.10307404030447       1.65046842313231      -0.11311744691437
H        -1.02255905895907      -0.44111778183718       1.73752435287871
C        -0.28719304978220       0.36019684499730       1.84900771101669
H         0.38489483427361       0.11532773250431       2.66747231880497
H        -0.77424596974134       1.31405539658964       2.04206514908284
C        -0.31336192776038       1.11311462161779      -0.49497442602488
H        -0.58656786320603       2.10034466495704      -0.11179221334271
H         0.35262213420086       1.25170262153969      -1.35222728124509
H        -1.91109225401686      -0.30814800121244      -0.09955070463497
H        -2.45418458835599      -1.96524901912296      -3.33730921426955
C        -1.36105878353514      -0.52082989900375      -2.16560723298110
H        -1.15358621296471       0.12776564736712      -3.02474202843101
H        -0.50077285076279      -1.18229351201088      -2.03088112644881
C        -2.60047399000583      -1.37164742654995      -2.43496292098675
H        -3.47867216862882      -0.73886887394995      -2.56998984838059
N         0.50434210052423       0.46942390650280       0.58932298180709
C         1.05136285987561      -0.86627722842001       0.19124743220646
C         2.23705796779759      -1.08614447044164       1.12122024864660
H        -2.77634811365693      -2.04441525702079      -1.59552600639220
C        -1.56707319921912       0.33561767923057      -0.91055406648356
H        -2.35603218576300       1.06821042014689      -1.10647000480841
Cl       -1.61925107348655      -2.44335324758856       0.98364622430880
