30
C8H15BF4N2 optimized with ADF in AMS.
H         1.42513499803219      -2.06120218167497      -4.24341426376235
H         0.90503420374963      -0.61890595410142      -5.24047788629507
H        -0.29071533181841      -1.59864259377702      -4.32330926485443
C         0.73416309072187      -1.21284715740807      -4.33333107928796
H         2.52121627235088       1.39388001456088      -0.92067551236229
H         2.99436326264780       0.16488876004386      -3.37309460158536
H        -0.98802858637959      -0.60036205496130      -2.18488336910101
N         0.91743783244282      -0.36834069695745      -3.15764421130127
C         0.00367923603504      -0.17130308470349      -2.20286318805339
N         0.54755707859475       0.58761421817532      -1.24459928272892
C         1.86009885566644       0.84640995179416      -1.57970762803924
C         2.09192293011550       0.24780272214739      -2.78168990379034
C        -0.08640957760707       0.88013958893903       0.04818569095030
H         0.35481621282528       1.82039801211708       0.41485951513141
H        -1.15407089824401       1.07076549268879      -0.14718623907482
C         0.10940248136498      -0.26543381769113       1.03212429658906
H         1.18740211533492      -0.46885445782459       1.13869520590014
H        -0.31284852444479      -1.18650873472922       0.59644146346181
C        -0.52192434013706       0.03172162235557       2.38811668788536
H        -0.08019863783421       0.95166642509763       2.81576766746056
H        -1.60304101919863       0.23100160378443       2.26479770958640
C        -0.32138974623054      -1.13427727455375       3.35418222940809
H         0.75114805080421      -1.33727259348240       3.50084368675234
H        -0.77695327974519      -2.05355104014343       2.95365117991755
H        -0.77016305661445      -0.92440759523053       4.33652125797904
B         1.40008676110022      -3.03426420054984      -1.20411829142348
F         1.51623463144321      -4.17976816888029      -0.41462385975564
F         0.00056946938992      -2.66564916982300      -1.33085464683166
F         1.92045382225578      -3.25023745851381      -2.51885600670023
F         2.09465784057852      -1.93340841949844      -0.61504908787462
