34
C10H22ClN optimized with ForceField in AMS.
N        -0.50334020244706       0.02452127926650       0.00918571692428
C        -1.43335845781787      -0.52707191739627      -1.02380337715360
C        -1.39814228004737       0.61588712533973       1.05128778844005
C        -2.82879126898859      -0.01828829702070      -0.72121835355113
C        -2.81453492471798       0.15352123685438       0.77017153172157
C         0.34812993620875       1.08955941185164      -0.61456208887385
C         0.30625596194037      -1.07837091209757       0.62342790748796
C         1.36420589833915       1.75113845412640       0.34488471175000
C         1.27794849952774      -1.78612257751315      -0.34949049327878
C         2.08796975757045       2.90511375193637      -0.34611602851071
C         1.95058613047715      -2.97843359160665       0.32747651397175
H        -1.14969006946745      -0.25517026930912      -2.06635239442657
H        -1.48464801880818      -1.63818319544311      -0.98946274390236
H        -1.10973986602074       0.33875595341086       2.09121872165137
H        -1.41030382107309       1.72931961688343       1.01231246503267
H        -2.98726215747510       0.96751926199509      -1.21339198614863
H        -3.61458064198398      -0.73348877780796      -1.04791149110994
H        -2.99769575764392      -0.82708886148738       1.26431969704088
H        -3.57185452187721       0.89351148096319       1.10816126010898
H         0.90612746599336       0.68145341946860      -1.48607166284218
H        -0.30691897103855       1.88868531883420      -1.03428520212705
H         0.89355726764009      -0.69666098147081       1.48759578921046
H        -0.37965582429475      -1.84628231099045       1.05205486467991
H         0.85672603527570       2.14755495550005       1.24871226072938
H         2.13120001753415       1.01691431117314       0.66614206568114
H         2.07647515252998      -1.08881208941039      -0.67596216860909
H         0.74299016450301      -2.15344769673632      -1.24974413631441
H         2.64209342271629       2.53364527124214      -1.23445565825534
H         1.36161429630654       3.68204061878947      -0.66670740647190
H         2.81317598645674       3.36652010525678       0.35659178138985
H         2.52754767124398      -2.64137256139143       1.21492553423411
H         1.19025955124088      -3.72310300252104       0.64595971906067
H         2.64839276811243      -3.46724699130480      -0.38445961432152
Cl       -2.41418494721495      -4.12582645078482      -2.26313008021799
