54
C16H29F3N2O3S optimized with DFTB in AMS.
N         2.45731709834240       1.35220769613489       0.75619874735441
N         2.81730617041294      -0.21735068377317      -0.67449749716177
C         0.50400505876145       2.53705496533435       1.65928442512130
C         1.94000706888832       2.06986309713248       1.91658842032509
C         1.54377196064920      -2.20733153825635      -1.46987385354362
C         2.91046323334662      -1.54461339708895      -1.27943584159110
C        -0.06678618106447       3.23296243223447       2.89553386530377
C         0.73272997576718      -1.55754463757008      -2.59348914331487
C        -1.48458368676014       3.74266086933907       2.61580001687299
C        -0.59190976278325      -2.29240056983291      -2.81060666811965
C         2.25293686602290       0.06103023400106       0.50185997164094
C         3.12318739330313       1.91838214978472      -0.29317792808057
C         3.35101997948036       0.92766077893890      -1.19586745024460
C        -2.06538371999808       4.46879006378158       3.83263226854676
C        -1.41380424258642      -1.61738270919450      -3.91255335300711
C        -3.48003379898817       4.97436754898570       3.55397460773195
C        -2.74650727215771      -2.33123937419468      -4.13055765596046
H         0.50399432299834       3.22457072679658       0.81075210452012
H        -0.11047443518882       1.67496654861661       1.39006099319493
H         0.98423343089292      -2.16895848745139      -0.53039816585597
H         1.72839271578804      -3.26075781331854      -1.70533346330270
H         2.59952312014690       2.92226221745064       2.09972363687622
H         1.98477772069487       1.39472397032309       2.77716875935265
H         3.53788355882033      -2.15951838584823      -0.62473584602044
H         3.41674249695403      -1.42703473941179      -2.24074345129129
H         0.57811565147329       4.07470349248922       3.17217694282165
H        -0.08624775256968       2.53476256802759       3.74043813406786
H         1.32030033234231      -1.56973526017660      -3.51756745103095
H         0.53195751024219      -0.51709912128447      -2.33585270996060
H        -1.46080735490983       4.42438553495904       1.75976122101975
H        -2.12719304735310       2.89650913726021       2.35113091166680
H        -1.16399485455177      -2.29111184957806      -1.87602465455478
H        -0.39665997087115      -3.33693134267487      -3.08125386034224
H         1.75062930908144      -0.63690312396895       1.14837651836524
H         3.34489580347667       2.96980332470877      -0.32997926451612
H         3.80970593594768       0.95489472809873      -2.16795394807472
H        -2.08450064514863       3.78712984509041       4.69032589373190
H        -1.42118152951801       5.31558612052894       4.09368606218280
H        -0.84171304999177      -1.61925266883373      -4.84644972665693
H        -1.60040517785863      -0.57588279658821      -3.63631861003142
H        -3.47820042927545       5.66862549128219       2.71270871954759
H        -4.14293478164079       4.14172829884920       3.31463707488596
H        -3.87297505348910       5.49080739105426       4.43021480337555
H        -3.30989346187772      -1.83555142749825      -4.92145921331661
H        -3.34309029564018      -2.31443650030739      -3.21712967674090
H        -2.58400627138244      -3.37127761086923      -4.41929758721849
S         0.53168507760026       2.20925700462564      -1.95642909609330
O         0.04676308761023       1.22471449381834      -0.99458504766745
O         1.36701646301059       1.64536743486931      -3.00275277324562
O         1.06123870085476       3.41914501748457      -1.34621414839695
C        -0.99671925041566       2.77696417708273      -2.83031469831999
F        -1.87401314857828       3.26678655055742      -1.95926204786610
F        -1.57349675442229       1.76150937555383      -3.47049037086839
F        -0.71653088298787       3.72186438462588      -3.71781206141053
