44
C14H26N2O2 optimized with ForceField in AMS.
N         0.23052351166835       2.30106022151305      -0.22343910801808
N        -1.84504107731742       1.50240204770343      -0.19185166870121
C         1.61608873441661       2.50528997880731      -0.64353780872086
C         2.55406755157785       1.49890957884269       0.04039806013868
C        -3.04183145141395       0.76144889888992      -0.58670389122261
C         2.13380453464426       0.04831500434565      -0.23848368074605
C        -3.09168216493062      -0.61189917077707       0.09764503704356
C        -0.73992982096702       1.69685867037665      -0.93642442663415
C        -0.28020235361839       2.50165217016846       1.00851150293402
C        -1.56850225377588       2.00739549662259       1.02763925707092
C         3.13183877238191      -0.95362058170547       0.34729778672527
C        -1.92799844224886      -1.51285887639323      -0.34068857086117
C         2.65294356382912      -2.38716887227708       0.12890293205446
C        -2.01070708955039      -2.88806241326942       0.31339050591531
H         1.92945498185136       3.54035757190261      -0.38815390315544
H         1.69888387622483       2.39233055209400      -1.74723145454507
H         3.58638384084668       1.66591702000652      -0.33668725759067
H         2.55374354438060       1.68179539580362       1.13723873290674
H        -3.94293963443616       1.34840048478294      -0.30716800606136
H        -3.06039605372164       0.62587801104830      -1.69074169347516
H         2.04902553620928      -0.11208435562713      -1.33609907952246
H         1.14302364288160      -0.13364356088507       0.22595416089353
H        -4.05357336999313      -1.10223319613098      -0.16735950918289
H        -3.06764212745749      -0.47652280969537       1.20108443186502
H        -0.61559223628595       1.33075107787620      -1.94757966539288
H         0.26033927872329       2.92638897573524       1.84437168431355
H        -2.23499600589526       1.97610809886821       1.87963118493199
H         3.24562824827882      -0.77564526314263       1.43901688390838
H         4.12279921749557      -0.82350797312914      -0.13918293387080
H        -1.93937361187975      -1.63536378129218      -1.44562419821453
H        -0.96483766732395      -1.04860292257607      -0.04947414173901
H         2.54859138733111      -2.59823036319334      -0.95689741178850
H         1.67224218755443      -2.54734781239467       0.62687380739582
H         3.38927622199881      -3.09685127640586       0.56065081185872
H        -1.99189711669243      -2.79065859865053       1.41989185506999
H        -1.13986213345096      -3.50125441448643      -0.00198769391306
H        -2.94269820748519      -3.40671021945863       0.00411641443073
C        -0.62972712886383       2.97250591272182      -4.87345743478319
C         0.57124814256782       3.72087876101643      -5.35802512780571
O         0.70552876322503       4.90162689035226      -5.08102369624106
O         1.42024942493405       3.15525203300231      -6.02798192284898
H        -0.63109061305374       2.95612861526892      -3.76458312120527
H        -1.55337553558301       3.47457479837792      -5.23038100418166
H        -0.62054587047636       1.92733035506327      -5.25062362903487
