35
C9H18F3NO3S optimized with ForceField in AMS.
N        -0.00760959999430      -0.00796606257774      -0.00535441765803
C         0.92304627262541      -0.84317162313860      -0.82543701635693
C         0.88102927017646       0.85319348090205       0.83302532656005
C         2.32628044249467      -0.29113618143231      -0.66286077097725
C         2.30128739143768       0.34350863024271       0.69870590578477
C        -0.83903542616720      -0.88059506789094       0.88574721188541
C        -0.84575358886854       0.84213158459311      -0.91190806079709
C        -1.81585296518702      -1.80901603168514       0.14159216440176
C        -1.85583766202569       1.74924966210960      -0.18504462885878
H         0.65146563915844      -0.87360080054402      -1.90550409817625
H         0.95317314806326      -1.90227193247029      -0.48010855304208
H         0.58836988236886       0.87535803255459       1.90769643480996
H         0.88811110634443       1.91291464649601       0.48802691231802
H         2.52156195567885       0.48162950999974      -1.43922070665692
H         3.09774677450640      -1.08961086769348      -0.72765425554832
H         2.50706437271688      -0.42189330090116       1.47938612919285
H         3.03770762986003       1.16954769973222       0.78018502802679
H        -0.17662340094558      -1.51734375310080       1.51638636181561
H        -1.42786243169506      -0.26666802562772       1.60195440290822
H        -0.18896602594325       1.49329346455698      -1.53364716012576
H        -1.40789356064740       0.21261216776278      -1.63583843124809
H        -2.27709327765403      -2.50826905369810       0.87044811194348
H        -2.63705250309093      -1.23148031965520      -0.32879598995427
H        -1.30146685003404      -2.41212924108560      -0.63366274590843
H        -2.32306867205252       2.43520150547439      -0.92261857218065
H        -2.66915659904547       1.15394250836848       0.27664390967202
H        -1.36823030876594       2.36795971971769       0.59522805092362
S         6.25957570569606       1.88588372724351       0.31948149148012
O         5.59554576084426       1.23411325386203       1.54129105210218
O         6.57418290281153       3.30641187849380       0.81086062726423
O         5.08512259944775       2.10365599907598      -0.64572090294703
C         7.66723785302756       0.97414115717309      -0.37155253885789
F         7.24401423866383      -0.26687128483860      -0.80693642642132
F         8.63574029912335       0.81429566846045       0.60048507402189
F         8.19576395617123       1.67875074702049      -1.43576562839591
