68
C18H36F6N2O4S2 optimized with ForceField in AMS.
N         0.00034488598386       0.00056815823005       0.00107747643521
C         0.84188468887991      -1.02899070879578       0.70693246391746
C        -0.87127818746864       0.68503387450102       1.01989075629758
C        -0.82349957999485      -0.69523957992869      -1.04939948514810
C         0.85461403094177       1.04103078051268      -0.67275300485291
C         1.89020936468995      -0.48192099370880       1.70979687081450
C        -1.93457590761534       1.66472698187738       0.45970605540769
C        -1.89329086024422      -1.68938390119428      -0.52937297833409
C         1.94182325296612       0.50758141571489      -1.64062462270580
C         2.65345275071292      -1.63981437738767       2.36667978806358
C        -2.73349494656345       2.29642905952736       1.60757845328703
C        -2.64030631658272      -2.33255292165009      -1.70571736632111
C         2.71933175341514       1.67331231488417      -2.26536264385178
C         3.69239221891202      -1.13004251754139       3.36057770813447
C        -3.78235037715028       3.27348174346687       1.08562318717070
C        -3.69490285122763      -3.32217007619363      -1.21971446175596
C         3.78465118592104       1.17510327372592      -3.23704489777902
H         1.36861286231267      -1.67391407175367      -0.03116793933539
H         0.19141822969628      -1.71540210627223       1.28992381716476
H        -0.24402640075496       1.28188717883723       1.71584241156844
H        -1.38933997164792      -0.06602635113409       1.65671956780889
H        -0.16247406190752      -1.28550264429996      -1.71835247453832
H        -1.32655994499600       0.04850419592177      -1.70667337639598
H         1.34908399264563       1.68905893589389       0.08456638296377
H         0.21737939899147       1.72208908539512      -1.27617099149597
H         1.39600016257597       0.09782704935120       2.51505030348205
H         2.62466459147636       0.17407729918635       1.20044325039524
H        -2.64481911783236       1.14140546302997      -0.21179989278566
H        -1.45002364447153       2.48518412166123      -0.10685749838769
H        -2.63499706024620      -1.17630068517353       0.11547372929599
H        -1.41837509643652      -2.50291634160123       0.05521560838433
H         1.47995998144783      -0.06895862022552      -2.46460823909127
H         2.66183195163930      -0.14876185665083      -1.11190472749702
H         3.16804021638723      -2.24140935963707       1.58616786869633
H         1.93952667912013      -2.30060627033306       2.90560779785240
H        -2.04386399995366       2.84421409717245       2.28665670279921
H        -3.24358117161166       1.50055421534629       2.19262952763179
H        -1.91901700291555      -2.87214007284267      -2.35808379395419
H        -3.13853032436740      -1.54442316046429      -2.31121352153970
H         3.21175722521741       2.26715210777916      -1.46496585498115
H         2.01883345654321       2.33844354567328      -2.81647275690160
H         3.20068343797455      -0.54700141364125       4.16820259524573
H         4.43783446530348      -0.48863610151675       2.84438525898029
H         4.22113714715323      -1.99289896268537       3.81755965740490
H        -4.50444922785930       2.74796985120438       0.42538700761586
H        -3.29590988669984       4.09598364370071       0.51917756558410
H        -4.33698667601367       3.71226433080172       1.94166922765461
H        -4.44669335961782      -2.80486910181724      -0.58653489515102
H        -3.21886523686074      -4.13712541579968      -0.63368180097107
H        -4.21307429796833      -3.76978961463040      -2.09372166804985
H         3.31478700756676       0.60184559077424      -4.06467100312881
H         4.51603266955061       0.52747994248249      -2.70860679980736
H         4.32549443002000       2.04329347844723      -3.66908878990275
N        -2.62719294035587      -1.47925742986235      -5.87712243876374
S        -3.64570314023941      -0.52576175221026      -6.73699777932456
S        -1.17072167677473      -1.97088636606013      -6.44615284599415
C        -4.77678525715026      -1.55337276497495      -7.65129588468964
C         0.09945709228140      -0.92690543918894      -5.76553753823662
O        -4.43333456109328       0.33314727921337      -5.78847585884181
O        -2.87915983699482       0.34939626537324      -7.68997265226371
O        -1.12896571220565      -1.90289255536609      -7.94788499592023
O        -0.92072534810376      -3.38354608564136      -5.99933247101924
F        -5.65690419278424      -0.75833533314043      -8.35997570694471
F        -5.48625858362823      -2.35087292559504      -6.77388831086190
F        -4.07430168929195      -2.35445942058714      -8.53080709024911
F         1.33343179562300      -1.31908870967146      -6.24759094661556
F         0.08996999131642      -1.03740573562971      -4.39003678404314
F        -0.13509657703538       0.38760523182136      -6.12036695082525
