31
C11H14F3NO2 optimized with DFTB in AMS.
N         0.43463154376250      -0.09492107819367      -0.02694236118675
C        -1.96133706310479       0.03801860852278       0.47718279830597
C        -0.54046181918328      -0.01944370633871       1.05179124246804
C        -3.00279338091169       0.13005605550254       1.59582581363117
C        -4.42170976577750       0.16350070041859       1.03113847826054
C         0.96948537432934       1.05106066528129      -0.56668146021208
C         0.74395428264969      -1.31097051030705      -0.59414187489986
C         1.76715901407836       1.03169293686555      -1.64259451294071
C         1.52909661766429      -1.41725456301534      -1.67280002845367
C         2.00747891252613      -0.21693583842575      -2.41944965983649
H        -2.14059488767549      -0.85841007828961      -0.12445374662864
H        -2.04467049440774       0.90675353752081      -0.18295507201644
H        -0.42447389866835      -0.89975411181540       1.69248262801593
H        -0.33435547512940       0.87504921650040       1.64786010521638
H        -2.89656757514904      -0.73199184347231       2.26331339533646
H        -2.82342939641038       1.03484553793301       2.18654841757568
H        -5.14529106498234       0.24146905256903       1.84268518228822
H        -4.54895736890426       1.01980550457233       0.36751990333805
H        -4.62943973999382      -0.74584824671838       0.46586014774236
H         0.75249458193614       1.96716341098955      -0.02802482941182
H         0.35798856570799      -2.18055445363781      -0.07341804303786
H         2.19983097345526       1.94917770152542      -2.01897181726835
H         1.78535307496316      -2.38880991245912      -2.07363945438854
H         3.04649062567192      -0.32511683171459      -2.75786512514408
C         1.51058215890497      -0.89049223092195      -4.67620857827483
O         1.21142708616189      -0.08716020984991      -3.69843297046939
O         2.35561269024260      -1.73652197493264      -4.70544729491840
C         0.57824293548962      -0.59925600598010      -5.90769706120416
F         0.83125612994376       0.61178392295592      -6.41102354871255
F        -0.70787736752029      -0.63325711428645      -5.54967651795610
F         0.76316658443079      -1.49507003329843      -6.87162438441807
