19
C7H10ClN optimized with DFTB in AMS. Optimization did not converge!
N         0.42368294886188       0.33764516561533      -0.06452884152389
C         1.82168838234312       0.69229961870881       0.11141892218453
C        -0.47705678290748       1.28436185247769      -0.43599666832707
C         0.10638588575236      -1.01806741980271      -0.09047001549862
C         2.57966866820434       0.03134987208622       1.27841750915825
C        -1.78077056785706       0.97537457867114      -0.64876953144079
C        -1.31575634721187      -1.31224789073850      -0.07481130968810
C        -2.21479333281017      -0.36056449359341      -0.40710295669062
H         2.34393268707078       0.45084973869862      -0.82732559933054
H         1.98005105532113       1.77603458956700       0.18006359109533
H        -0.10279232987713       2.29994044849469      -0.50320810255620
H         0.74162397711498      -1.62875780367271       0.53623575069001
H         2.76625092923877       0.79796828551881       2.03392771208376
H         3.57134252875944      -0.26674089706553       0.94072380698158
H         2.04380654338328      -0.80708349489215       1.71475835732498
H        -2.49311958384281       1.73214523929684      -0.94481070771438
H        -1.61190037058124      -2.32534054634513       0.16308937230541
H        -3.27679180528422      -0.57824274565761      -0.42562591001308
Cl        0.83952366832185      -1.63841212606736      -1.85669039064057
