36
C10H23NO2 optimized with ADF in AMS.
N         0.02727995956027      -0.12387587524733      -0.21000249864311
C        -0.75463624807029       0.11546120996722       1.06222408336672
C        -0.89500248781660      -0.25540905590635      -1.42684219924517
C         0.81696427644361      -1.41226364849737      -0.06213108673326
C         0.95991766046852       1.05820014009974      -0.46267592429101
C        -1.82325579065619      -0.91588855448082       1.37841022835088
C        -1.93114615690946       0.84025918177396      -1.56213965148912
C         1.75650924157773      -1.73618374571764      -1.20639488282193
C         1.99314287883331       1.30668337737697       0.61677389968859
H        -0.01602315646697       0.15904206759366       1.87478998152914
H        -1.19575284863821       1.11666867711056       0.95442595553117
H        -0.20287103815137      -0.20399552197682      -2.29661641610543
H        -1.35311605515110      -1.25294753294404      -1.34309967641529
H         1.36254789113646      -1.32866094755737       0.89062227505625
H         0.06688781591892      -2.20747921866990       0.05145029535619
H         1.39458899027726       0.86254637250040      -1.46122521300916
H         0.30723423911715       1.92906322619306      -0.60724678039617
H        -2.34242232740701      -0.59373178609448       2.29419202564948
H        -2.57535854356513      -0.99725575461694       0.58212087483969
H        -1.40559170283178      -1.91268431752090       1.57602632128933
H        -2.53246487272664       0.59140176483747      -2.45142514048292
H        -2.62159785606272       0.92081337551572      -0.70891760283788
H        -1.44360108705330       1.79972948484157      -1.79529208440783
H         2.22780793225799      -2.70537271253792      -0.97912421406179
H         1.23911745896545      -1.81133854869812      -2.17091861176098
H         2.54781793668715      -0.98659031333040      -1.33106024940566
H         2.60935121001839       2.15312859653214       0.27521651368967
H         1.56217199541377       1.59466230698559       1.58743028645242
H         2.67394902383482       0.45608392757167       0.76896560817817
C         1.31775720361951       1.91972787639116      -5.26626549946674
C         0.89446552385454       1.53708844278129      -3.83984523484526
O         0.22980263174723       2.38989184702315      -3.19021199643313
O         1.25881600876888       0.37677064512031      -3.43086492893185
H         0.42590470380720       2.17121417821304      -5.86076691211998
H         1.94519597753975       2.82357365829766      -5.23533924863734
H         1.86980100155885       1.10484978517004      -5.75379900753668
