23
C7H13ClN2 optimized with ADF in AMS.
N         1.17000445392343       0.20368244060018      -0.55768621642568
N        -0.98875848171502       0.43359530441628      -0.49295439311167
C         0.01013244300922      -0.37473701716968      -0.88969011239757
C         2.51390192008028      -0.37493106782978      -0.75182632735999
C        -2.41529065594547       0.10846196652770      -0.56316618119852
C         0.92887563577837       1.40716879910473       0.07823295085724
C        -0.43191475000197       1.54482470615729       0.11694930360842
C         2.95975106152301      -1.11835304686860       0.49627810612357
C        -2.91728340492370      -0.50083984360677       0.73762868462087
H        -0.11211773121157      -1.32221674800772      -1.39949102743410
H         2.46356406048069      -1.01526490015577      -1.64576161762097
H         3.19002328906930       0.48958437885582      -0.90532418212675
H        -2.95059530448122       1.03866703829479      -0.80731333393144
H        -2.55241544071578      -0.58214132930048      -1.40861156636132
H         1.82985358784937       1.99896749842705       0.41926869558566
H        -1.04629298003745       2.34425037999807       0.51383065111279
H         3.09424380831296      -0.38434351291232       1.30627279793584
H         3.93867339290430      -1.58084998832604       0.30403575809878
H         2.24443386865186      -1.90338399884163       0.78944319068130
H        -2.38223479188273      -1.43551753227752       0.96227792560972
H        -3.99059025581940      -0.72363974373669       0.65257347995841
H        -2.77159440183330       0.19160588142512       1.57931229317193
Cl        3.81490509928482       2.27112760032597       0.67459866470347
