39
C11H19F3N2O3S optimized with ADF in AMS.
N         1.67066943840703      -1.56190035801535      -0.56883351336495
N         2.55312125281217      -1.05545845212315       1.35246902976814
C        -0.61477890547622      -1.63344985043225      -1.53607338394969
C        -1.28202869988914      -0.36542934788730      -1.00776538132431
C         0.88246505270043      -1.47820168987899      -1.80633965248497
C        -2.72732337179817      -0.60263357319643      -0.57441584312124
C        -3.43288035424469       0.68034534373362      -0.13853044508921
C         1.97359074896569      -0.54830260578566       0.25643340694903
C         2.06151475699386      -2.74360314011427       0.02796072797390
C        -4.85421622785229       0.43181230440252       0.36014144886135
C         2.61475491739576      -2.42543961691094       1.23318747913458
C         3.00538820034639      -0.29642671589532       2.52053972260979
H        -0.75986726510937      -2.46111259383666      -0.82003401700495
H        -1.09559521788671      -1.93891234663442      -2.48169982220082
H        -1.24893802427503       0.41591859491563      -1.79196269618381
H        -0.72496458321263       0.02275555337969      -0.13750587833433
H         1.10996641061970      -0.51334211203648      -2.28441828898313
H         1.26110834128837      -2.27414609272206      -2.46484323525260
H        -3.29228296764646      -1.07087020212894      -1.40313744510268
H        -2.73212624097250      -1.32304113719537       0.26330493217004
H        -2.84095464475086       1.15899986288795       0.66281140803902
H        -3.45181631923005       1.39153097346748      -0.98532516923628
H         1.76604075939067       0.49813258940144       0.07674699272557
H         1.88092665062205      -3.70486052725672      -0.43625183340281
H         2.96330272675676      -3.04380391087858       2.05044815786302
H        -4.84922368957321      -0.24139063145787       1.23172075287877
H        -5.34291256193216       1.37080219760322       0.66244490560022
H        -5.47329278631563      -0.03430610869425      -0.42311116221897
H         4.05164020690782       0.00403285106106       2.37697691763875
H         2.34998510261517       0.57038589306609       2.65602414354018
H         2.87855574323110      -0.95135676528383       3.39274359627045
S         0.39794433529286      -2.13819733302081       4.28183322011084
O         0.48367326071210      -0.66823842591149       4.33975523455253
O        -0.34366764078717      -2.81727567585403       5.34111060850472
O         1.65851747456437      -2.79712400874333       3.85390294969381
C        -0.71963067090473      -2.38533714939771       2.77088439838007
F        -0.32270277698284      -1.57766034933716       1.72019570794441
F        -2.01223140489015      -2.06255274919110       3.03014615070035
F        -0.70026673009232      -3.66430655299823       2.29346002874521
