43
C13H27NO2 optimized with ADF in AMS.
N        -0.77690334550256      -0.21536534069646      -0.19529589411908
C        -1.04427671266683      -1.33121786826191      -1.20016670301492
C        -2.09251961056593      -0.12191151000460       0.54124341774708
C         0.32553693890598      -0.63003314914199       0.76155090496267
C        -1.89921172452861      -2.34913213672515      -0.44587586884149
C        -2.57029106220876      -1.56486046980732       0.71402185911745
C        -0.44105536330946       1.07324738654660      -0.91491409127750
C         1.71803463390625      -0.59378163377774       0.15072645704197
C        -0.26169284066693       2.27204681237698      -0.00265257198769
C         2.70333193646318      -1.42147864229536       0.97758772415116
C         0.05864976852162       3.50152892505459      -0.85670196078527
C         4.11315279596855      -1.37356161245127       0.39230521216938
H        -1.53553823838821      -0.84838988507614      -2.06434982869700
H        -0.08140465453593      -1.67519788939891      -1.59876486925939
H        -1.95488978021990       0.43100372142690       1.47943515451515
H        -2.76152670309445       0.44706258350922      -0.12085404124976
H         0.07356250214730      -1.65086447795579       1.08725124450599
H         0.25336624227924       0.02893213637618       1.64061659605843
H        -2.63976057887055      -2.78636251753998      -1.13113140203844
H        -1.29670956573255      -3.18321829157277      -0.05405196373108
H        -2.27247599593695      -1.96614442980527       1.69444638111305
H        -3.66829794540581      -1.60611809062304       0.67056451989416
H         0.44253033333798       0.83432768601469      -1.53510011460136
H        -1.24895840414273       1.22250154397710      -1.64694550758412
H         1.69271903460570      -0.94702691791478      -0.89453862617616
H         2.07537643330536       0.44805731977652       0.09516962925115
H        -1.17549076418219       2.46685285642921       0.58702789464894
H         0.55789020794254       2.10691176824918       0.71750171951076
H         2.72053977888894      -1.06077634580799       2.02310723313748
H         2.35508529405227      -2.46980542539453       1.01529023074082
H         0.98071249298457       3.34165415400478      -1.43626851134916
H        -0.75195991640059       3.70040258850517      -1.57440557302605
H         0.19116915383774       4.39497433478678      -0.22979277528779
H         4.81283209498968      -1.98276351959785       0.98392761521255
H         4.11576080817971      -1.74827139472764      -0.64313817345781
H         4.49582591257003      -0.34072426879733       0.37131542719331
C         0.93128358147363      -0.09533298613948      -5.33060479599614
C         0.36498826531907      -0.13294609960177      -3.90432971796793
O        -0.86228654131938       0.15492805627970      -3.77664997229301
O         1.18679823485639      -0.42876714302859      -2.97163701621233
H         0.23475160427125      -0.58273465894510      -6.02812388004867
H         1.02490195595406       0.95528327070280      -5.64856155394314
H         1.92085758061732      -0.56993386502767      -5.38130608902623
