61
C17H24F18NP optimized with ForceField in AMS.
N        -1.35511961114254       0.13690299710075      -0.05264734295129
C        -1.63578747358083      -1.05921556534459      -0.90571800942063
C        -2.45965977652624       0.15962340974186       0.95478466116738
C        -0.04184290574562      -0.02565531973026       0.65183332130877
C        -3.01855469583744      -1.57656952454793      -0.55839127398652
C        -3.20095378521040      -1.16040913547173       0.87361022467155
C        -1.39967404348743       1.37404873841208      -0.89779773571337
C         1.19025640352144      -0.04371597452292      -0.28516172551966
C        -1.11220763486595       2.67986957279501      -0.13467230380175
C         2.45430185014148      -0.45405192422971       0.48031801856043
C         3.67975836497639      -0.45563902536497      -0.44095826675806
C         4.94166956191097      -0.84721664401778       0.32117889833386
H        -1.57513448235611      -0.84601840798299      -1.99748829060217
H        -0.92304945951318      -1.89329936424853      -0.70924767081613
H        -2.10337554693515       0.33112316822843       1.99634595480665
H        -3.20586897207812       0.96005142626369       0.74291097519158
H         0.10352454022609       0.78631242657988       1.39882332924779
H        -0.05381451710821      -0.97170470923317       1.24212170163391
H        -3.78052208143239      -1.07736045237139      -1.19743663195818
H        -3.09330758137106      -2.67952319488555      -0.67733498709226
H        -2.72246303817444      -1.90484487987498       1.54814205384697
H        -4.27603844316959      -1.05215095093689       1.13558365651727
H        -2.40282976487814       1.47089708861833      -1.37360298430968
H        -0.67917842571559       1.30256185962367      -1.74191944506433
H         1.35347265468396       0.96866402067791      -0.71069311160136
H         1.03546684825066      -0.75168916420314      -1.12585363447811
H        -1.74418563002949       2.77514663757886       0.77132513427255
H        -0.04444248751893       2.74578832049051       0.15678546258571
H        -1.33046000299568       3.54350554066255      -0.79763675160075
H         2.31456070153230      -1.47301126782383       0.90446078323823
H         2.62326897877114       0.25819397994305       1.31813365565331
H         3.52283770304704      -1.17798601577862      -1.27169122002151
H         3.82390317013082       0.55730266417100      -0.87626383262040
H         5.80973547505386      -0.84870966891464      -0.37107038550684
H         5.13932559444616      -0.12255089787120       1.13955088263063
H         4.83000341248843      -1.86313038675331       0.75221293562425
P         5.27204480156131      -6.27616918307854      -0.61669487244262
F         5.80206849991699      -7.65196057648692      -1.51146353706883
F         6.35782492430184      -4.96884121421959      -0.90278872918482
F         4.06320338578667      -7.49625090669887      -0.51283002472613
C         4.82061365781799      -5.66393000558961      -2.39443706143538
C         6.76787750797710      -6.97791560088123       0.39157388246934
C         4.17321045520618      -5.51139170704653       0.76212132036438
C         3.65519294684242      -6.40347385795694      -3.08713415919810
C         7.25735989279121      -6.15291873617908       1.60851933395698
C         2.74021976019764      -5.08795904972192       0.38729283645735
F         5.93121379957916      -5.80991616283349      -3.21763010693064
F         4.51287848148344      -4.31260506186425      -2.37694538524880
F         7.86933292441479      -7.11256591206632      -0.44834039836710
F         6.43321502171774      -8.23917749785001       0.86146389285452
F         4.81503212649717      -4.38893045077022       1.25077904236789
F         4.05490946899085      -6.42209207091725       1.79925414347947
F         3.50917248933810      -5.90685104074624      -4.37030824451818
F         2.46658736640075      -6.20465513760673      -2.42000426230418
F         3.89939397019949      -7.76135934202720      -3.18178923245132
F         8.45006473720297      -6.69334553849131       2.05701639875834
F         7.49345632384301      -4.83106357719101       1.28183755358654
F         6.36418643152649      -6.21121617494071       2.65839896027613
F         2.72877013723159      -4.19402582972138      -0.66130783549752
F         2.16613801569763      -4.45777765270764       1.47740778463641
F         1.95793442596929      -6.18656550248642       0.08329487269842
