46
C14H26F3NO2 optimized with ADF in AMS.
N        -1.94441011834260       0.22570285019453       0.02181319972041
C        -2.05443809907466      -0.96211688351056      -0.92368896676140
C        -3.06024534433490       0.00823605197677       1.05481409613781
C        -0.57243037681671       0.25454651101755       0.69552670872933
C        -3.49746113308146      -1.41893602552114      -0.81060931738810
C        -3.72098303688312      -1.32219408429495       0.70034496560081
C        -2.18035490814861       1.51266057087147      -0.77868081220896
C         0.60189977544254       0.08752013992228      -0.25262488631823
C        -2.49875796922226       2.73937668575202       0.05026848822106
C         1.91269835631573       0.26370678628500       0.52245470816046
C         3.13072022633651       0.21185969043220      -0.39970739781909
C         4.44668461387825       0.44911452906082       0.33998428284581
C         5.66222620922261       0.40434064310301      -0.58426763560276
H        -1.38317774176883      -1.74306801973365      -0.53854577935457
H        -1.71268242021744      -0.65359590927460      -1.91946582697926
H        -3.76806146316341       0.83608201340962       0.94569538598178
H        -2.62317627109625       0.05609808766832       2.05989145971363
H        -0.59952788607910      -0.54986792315018       1.45002098178837
H        -0.48387529466744       1.24023056122221       1.18102533294906
H        -3.63641813706521      -2.43259161891124      -1.21333898671586
H        -4.17686054285243      -0.74166042859586      -1.35447693549210
H        -4.78122396724140      -1.33510039891171       0.99304455249270
H        -3.21930891825807      -2.16250297526650       1.20846679661676
H        -1.24803409123609       1.70191497893639      -1.34084691102382
H        -3.00211061377827       1.27804229349776      -1.47342294461206
H         0.59344503789786      -0.90317933328296      -0.74013120773552
H         0.56635549921209       0.88125964367426      -1.02100874479286
H        -2.42005388193196       3.60378546789503      -0.62788712744055
H        -3.51291233378934       2.73844582000531       0.47570923757369
H        -1.74863418007748       2.91376177262981       0.83394466472416
H         2.00375817020213      -0.51218496183969       1.30688424293327
H         1.87845643003124       1.24958302787093       1.01705192414391
H         3.00982896115955       0.98067637541751      -1.18455312035009
H         3.17278882283702      -0.76658259628798      -0.91668541250921
H         4.39902798618652       1.43116809555724       0.84414400567167
H         4.55986015867347      -0.30627386123572       1.13965493330314
H         5.58769228911278       1.17575556995472      -1.36742774520966
H         6.59834704293538       0.57646869814573      -0.03031318365510
H         5.74286718214983      -0.57397525037402      -1.08595716989323
C         0.53322720156384       3.57793982121649      -0.58268008107151
O         0.35623048925717       2.94471161586377      -1.65603842879106
O         0.53567959090168       3.19151960063629       0.61155089692110
C         0.69009883178741       5.12303071123649      -0.77800380470848
F        -0.56594638578465       5.69919566190682      -0.87056951859820
F         1.35997156110580       5.45876121918048      -1.91872815783999
F         1.32687451070231       5.74464717544991       0.25536601924273
