54
C14H26F6N2O4S2 optimized with ForceField in AMS.
N        -0.71872187626049       0.30122555911827      -0.15623536558095
C        -1.28828242351863      -0.46505923564600      -1.31260114389194
C        -1.84437694640145       0.72401866519383       0.74066008241766
C         0.26826890251767      -0.52089668274708       0.62935031927882
C        -0.07869128009704       1.53378988627775      -0.73326190512561
C        -2.15403646107406      -1.66895310058063      -0.90408046531804
C        -2.75191477961006      -0.43572410248834       1.19926852804627
C        -3.29124060684336      -1.22339207197223       0.00926193738980
C         1.54915181804665      -0.94317805546945      -0.13215112543470
C         0.65772494250533       2.44584448376106       0.27874788856495
C         2.48354840501757      -1.74497884414895       0.78323845244985
C         1.25105463450296       3.66435632446425      -0.42286833736290
C         3.75308844318608      -2.16452357751849       0.04727988606641
H        -0.49306441690276      -0.81448724981680      -2.00305168040904
H        -1.93573276832445       0.20120750793202      -1.92997977919299
H        -2.49313621414059       1.47097775980990       0.22713958979865
H        -1.45935281195198       1.21515773187419       1.66008522811549
H        -0.20127696334801      -1.44977857168884       1.00667014165306
H         0.57145237912804       0.02315177745630       1.55068297191721
H        -0.84969676993937       2.15832511700981      -1.24213140601897
H         0.63671009460176       1.25821135215766      -1.54007240934035
H        -1.54538105537784      -2.45662795612355      -0.41442996902853
H        -2.59021752262844      -2.12503609228155      -1.81905139003206
H        -3.61069759336137      -0.01716899594778       1.76747990482905
H        -2.21133250784604      -1.11273419360054       1.89297135726370
H        -4.00117606398146      -0.58758225312991      -0.56463587528635
H        -3.84542906070611      -2.11497453946711       0.37403564944935
H         2.10536657566048      -0.05474966749652      -0.49346371170776
H         1.28966746048964      -1.58220283591932      -1.00020640820683
H        -0.03785894681887       2.81226073174186       1.06038287237870
H         1.49326854380075       1.90644853280075       0.76851415504741
H         1.96196694647103      -2.65736177850137       1.14649357254684
H         2.76794399999506      -1.12804027208742       1.66355453328935
H         1.80161789320367       4.28461898932663       0.31535694022507
H         1.96129470445986       3.34768463888033      -1.21622480119359
H         0.44473222992088       4.27988581847564      -0.87593732352104
H         4.31285096659972      -1.26883062225715      -0.29690591963953
H         3.49996414768280      -2.79842000395741      -0.82920168040350
H         4.40357514944118      -2.74845975703806       0.73185295476886
N        -2.28958114434981       9.10991036619210       0.05571374634894
S        -3.55604392652115       8.85452768012165      -0.95326179056700
S        -1.34575678669748       7.89700242590272       0.62720658299938
C        -5.04345767917274       8.67896335447697       0.01020612524899
C         0.12564764537799       7.78815944574666      -0.36891849582135
O        -3.70717680941072      10.04028633247705      -1.86310637221229
O        -3.33884145454185       7.61466417347088      -1.77563691213488
O        -2.07829454687024       6.58433049681389       0.58987499306472
O        -0.94750552637529       8.20947672994592       2.04149283132571
F        -6.12296158192370       8.49613768814448      -0.83331191940802
F        -5.24055001950074       9.81995789481856       0.76461187917437
F        -4.92941984144202       7.58858388168707       0.85104677720684
F         0.98859007612648       6.86038997412660       0.18107327520743
F         0.74773590761215       9.02133291568223      -0.40859177318938
F        -0.20777329710961       7.40106921459749      -1.65280376704531
