37
C9H20F3NO3S optimized with ADF in AMS.
N        -0.39615453347828      -0.40186927390437       0.12314007512121
C        -1.07317069437382      -1.51207038828211       0.91998239397086
C        -1.24111666077107      -0.00541003623039      -1.08241531878652
C         0.94802461645021      -0.90947768545784      -0.36953642234633
C        -0.23044185757191       0.82498228745143       1.01835112211234
C        -1.36282460844019      -2.77947591845197       0.14226853292113
C        -2.67700640464319       0.36422389767965      -0.77320257323480
C         1.84562240516584       0.12552200558705      -1.02260921524550
C         0.65673562298917       0.62136718349413       2.22823343917767
H        -0.41048287287424      -1.71372353096057       1.77142267880689
H        -2.00355219097512      -1.09553186890348       1.32674983064661
H        -0.71328810879491       0.84242568963419      -1.54149607428873
H        -1.18637300448882      -0.85531412150012      -1.77908122320080
H         1.44266650792479      -1.35840252259752       0.50378904069727
H         0.72259556322576      -1.71808568521510      -1.07784617546115
H         0.15487633438556       1.61620585596206       0.35832630002985
H        -1.24054894436520       1.11151407937282       1.35240221828999
H        -1.88692136673761      -3.45885198225294       0.83181335580111
H        -2.03938028550946      -2.60714465280255      -0.70670832349250
H        -0.46016867493587      -3.29893891064412      -0.20903455411512
H        -3.15678787879418       0.64385916056729      -1.72429748767105
H        -3.24992286419442      -0.46251682054794      -0.33259381970915
H        -2.76408603072186       1.21422434177072      -0.08245458923942
H         2.75443750385097      -0.38882528855182      -1.37147930515593
H         1.38274724612989       0.59328918924118      -1.90243836187145
H         2.16096802296811       0.91111473030625      -0.32283449988412
H         0.74038407767748       1.59892887470073       2.72765323692692
H         0.18652855389092      -0.04978516882805       2.95959533342551
H         1.67516846738923       0.28585707933616       1.98173093411400
S        -3.33575617403301       0.36195702660466       2.98318337306773
O        -2.16956471643415      -0.14442164785826       3.73363196423479
O        -4.03511106847817      -0.65339484718356       2.16872620085886
O        -3.10400492968103       1.65104212768683       2.29019416797354
C        -4.57124973550638       0.80267771560577       4.32791849843270
F        -4.06124023310152       1.74183884406601       5.16883675989258
F        -4.88565934041947      -0.29374192730057       5.06734440248945
F        -5.72137722252403       1.29738903560633       3.79839757061158
