40
C10H22F6NP optimized with ADF in AMS.
N        -0.27761332550427       0.29636629899681      -0.38413061140416
C        -1.11983488445891       0.50015414708931      -1.64361610394149
C        -0.35522838205851       1.64701524534889       0.31751176242077
C         1.14897699001137      -0.03018432775286      -0.77393678645830
C        -2.12685553871903       1.61888356832326      -1.32890407637696
C        -1.77799811294836       2.12452571492668       0.08682346013713
C        -0.89356395302667      -0.76220843073451       0.50896698956440
C         2.11261002162137      -0.13476233125005       0.39393664663271
C        -0.77799666796882      -2.18561852998621      -0.00176898167187
C         3.55124032000600      -0.17993457134881      -0.13047298474151
C         4.57389434611797      -0.26713882193586       0.99786524953941
H        -1.57472149696323      -0.46212033159810      -1.90813923618967
H        -0.42260728179177       0.81649344013350      -2.43013605653291
H        -0.08041358908234       1.51642293508564       1.37181138725957
H         0.36638801564122       2.30148398154255      -0.19265554651381
H         1.11362599716120      -0.95993868509145      -1.36091630258737
H         1.45569935474239       0.78729047482852      -1.44102075548085
H        -1.98054166126559       2.42591579458776      -2.05988092280130
H        -3.16756848505879       1.27011514571913      -1.39224675506206
H        -2.46990321541570       1.72174165778831       0.84427995904866
H        -1.81226950527288       3.22206196466232       0.14615693411647
H        -0.40001936917237      -0.66500875609297       1.48715376346397
H        -1.94788235619941      -0.47476844046752       0.63198385074307
H         2.01421882880902       0.75249189349125       1.04086742231961
H         1.91078544193251      -1.02661670416574       1.01456994782703
H        -1.34432438446834      -2.84032226600784       0.67912063428491
H         0.26173538646077      -2.54011821615163      -0.01106989720433
H        -1.20351273411739      -2.31517556651996      -1.00666276293528
H         3.66772806932542      -1.04090893538024      -0.81291803506362
H         3.72626100876798       0.72966414602420      -0.73050364181434
H         4.43880121288494      -1.18421463349620       1.59340039900171
H         4.48243885541586       0.59624598030776       1.67565529949622
H         5.60013555488556      -0.27060847238761       0.60024076784583
P         1.58102890939103       3.66964484313122      -2.63952221063062
F         0.09253471550174       3.79615345875108      -1.87217292353655
F         2.01816388414864       5.12856360939998      -2.04706544993570
F         2.17220360813250       2.92634703960112      -1.24069931129839
F         3.03731016948878       3.46148659734240      -3.35574791419956
F         1.11222431270713       2.13777401835962      -3.17926743567991
F         0.94586508483896       4.33785864862624      -3.98863182174092
