46
C14H29NO2 optimized with ADF in AMS.
N         0.03441976156862      -0.01018480804553      -0.16811905099758
C        -1.28293262652329       0.54871335202100       0.30346162035106
C        -0.09839416434704      -1.51924525594152      -0.37191631530147
C         1.12139150439078       0.17306998094446       0.88388791268125
C        -2.41945350431877       0.23209169831950      -0.65895041428720
C        -1.23222701928136      -1.88713719400363      -1.30682767655365
C        -2.56339939835104      -1.27533993638779      -0.87414449413303
C         0.48075024094558       0.65102673019671      -1.44522103311417
C         1.44727103857336       1.61622960319634       1.23616659634587
C         2.62481398970477       1.70418413255935       2.22929130858164
C         4.01015833202854       1.81990558159135       1.58405672569886
C         4.49410309433468       0.59717299767129       0.80708054643831
C         5.93273158741682       0.75952363402830       0.32243987504043
H        -1.15273387338738       1.63162382660948       0.43514690389229
H        -1.47278508074251       0.09383662734307       1.29104149053124
H        -0.26105826081071      -1.92829784740677       0.63952012231133
H         0.87910725765581      -1.83185778021719      -0.77739926733572
H         0.76687424194229      -0.36530474674752       1.77829977983849
H         1.98554703196365      -0.35991426893800       0.45569853723811
H        -3.34345981526412       0.66276526786801      -0.23649670272514
H        -2.24743997350051       0.74328026813654      -1.62174229069924
H        -0.94919237048327      -1.60500258503250      -2.33422371575261
H        -1.28846566504411      -2.98885434706349      -1.31716771318482
H        -2.89733901322817      -1.74067930527701       0.07293027840370
H        -3.34506185687111      -1.47851010852037      -1.62465204489333
H         0.37200167782120       1.73585265547197      -1.32667725075090
H         1.52073842702368       0.32233123295765      -1.60816898916356
H        -0.12405425369229       0.28264078875189      -2.27696735677464
H         1.71165264881455       2.18648413852521       0.33089202301479
H         0.56591111345503       2.10321579755094       1.68688883216499
H         2.46868106936143       2.59102952205560       2.86783896787503
H         2.60489009736314       0.83172940564948       2.90884478217982
H         4.73784605956684       2.04120341208397       2.38762636035846
H         4.01856984644172       2.70467188059764       0.91764941029437
H         3.85900892112649       0.38071581907213      -0.06641319989360
H         4.42612855011641      -0.29741854020461       1.45496901898540
H         6.03050671501709       1.64397561704500      -0.32840314129663
H         6.62946123457097       0.88732932691436       1.16724646238965
H         6.25019660772786      -0.11987495803721      -0.25800278905456
C         3.78287170912310      -2.22730817753340      -3.33077963596390
C         2.59060398440854      -1.71374428826879      -2.51405443121855
O         2.85727039839688      -1.20398041671429      -1.36699975578624
O         1.44614624928837      -1.82512303719290      -3.03065338753232
H         4.71944457222877      -2.16937135316936      -2.76050881876244
H         3.59667328012501      -3.26621375054295      -3.64187360007196
H         3.87661112204368      -1.62891464781643      -4.25022317706782
