54
C14H20F18NP optimized with DFTB in AMS.
N         0.61712424529466       0.19793771171072       0.48836472795411
C         0.39306796442455       0.50002622669172       1.95004482569278
C        -0.68270476774764       0.09207323076246      -0.26067277563078
C         1.33620592717964      -1.12384601394761       0.37812900154900
C         1.43175085605740       1.31838783685275      -0.11028630134473
C        -0.51655213011047      -0.47165462149878       2.68367197990658
C        -1.61164684558442       1.29034030733276      -0.12954177828137
C         1.79762991959569      -1.50759388149395      -1.01748727746990
C         2.83988273014902       1.47385224185668       0.44402715717133
H         1.37406408580147       0.48766364306434       2.42264877579013
H        -0.00687782688065       1.51453808596348       2.01116042045450
H        -0.42973411722010      -0.05396310792283      -1.31302404948279
H        -1.18681302299390      -0.80762908219697       0.09885781665234
H         2.19562627195091      -1.07043153200031       1.04190743401428
H         0.65536155538314      -1.88667637519934       0.75885547999664
H         1.47071441597527       1.14130011132102      -1.18780295875165
H         0.87168147873339       2.23964394514513       0.06500670803847
H        -0.56991483541864      -0.13291013159474       3.71821856981396
H        -1.52551944101432      -0.49086846154673       2.27522154034818
H        -0.10859684154627      -1.47990088285206       2.68685185478369
H        -2.50453524041737       1.07571827077087      -0.71680138346223
H        -1.91714238852885       1.45972224362663       0.90075207994140
H        -1.15981208184539       2.20012089844597      -0.52036776781364
H         2.29765044551765      -2.47187915225941      -0.92572656839874
H         0.96886956155315      -1.61614696594821      -1.71577926413000
H         2.51644959249085      -0.79739728283983      -1.42077049541632
H         3.30732413000519       2.29898462742798      -0.09366419119958
H         2.83507079064461       1.71657526726734       1.50385197921563
H         3.44240228890755       0.58217871230198       0.29200294991808
P         4.37874024982074      -1.35296114994857       3.52011236069261
F         5.49946520602517      -0.11130290109953       3.47044759859560
F         3.26912780500117      -0.33274380212531       2.66410485709588
F         5.41144578648501      -2.37307257514305       4.33259042719331
C         5.12936051796063      -1.96148274408774       1.80882546745597
C         3.81118299004989      -0.56325532189451       5.22252015557569
C         2.91478960453334      -2.72985267017204       3.46638725097160
C         6.55227015499463      -1.47992639247176       1.41684545300697
C         2.97237433004835       0.74216403832436       5.17558671435484
C         3.02448953229635      -4.10709860643835       4.17155030512551
F         4.34275741666449      -1.59998032976054       0.75886224869264
F         5.16441500454060      -3.30337256330578       1.81864884275760
F         4.91548858167666      -0.27643235652564       5.92782699400622
F         3.10096352091208      -1.44274510712167       5.95185148848518
F         2.63248532596338      -3.00903878087920       2.16769974773765
F         1.79184855771234      -2.13965463112323       3.94640958519972
F         6.98483822615572      -2.17446725896323       0.35916545267898
F         7.42812410548948      -1.64213569948060       2.39697732828454
F         6.53038700702916      -0.19461798499728       1.06393751685519
F         2.83329130630935       1.26050580620611       6.39325942970370
F         3.52539177858347       1.66942262618143       4.39812268897423
F         1.73765575016711       0.50632820127385       4.70171610999126
F         1.88223274022965      -4.78598663187569       4.00678407597995
F         3.23829061555275      -3.98227341023048       5.47444678919751
F         4.00664707034229      -4.83451585788255       3.65238739912826
