23
C7H10BF4N optimized with ADF in AMS.
N         0.40932026051148      -0.02639208590631      -0.32799119387866
C         1.87933293709979      -0.24988049684869      -0.44536336080649
C        -0.03965926869643       1.23194533928462      -0.12553251765157
C        -0.44356137738426      -1.07094565685367      -0.42028771515199
C         2.56968229941740      -0.06201142956329       0.89188907078282
C        -1.40225343911580       1.46340890078410      -0.01023159930772
C        -1.80695529811486      -0.88132087316017      -0.31596178497234
C        -2.29851459965451       0.40668064236876      -0.10720559038773
H         2.00665066172285      -1.26770227621135      -0.83916841034910
H         2.24288989700697       0.48328525478027      -1.18286916588013
H         0.70672198511400       2.04034668174948      -0.07725394212394
H         0.00773396440315      -2.04726884151684      -0.58441548269866
H         2.46408054100800       0.97529942702261       1.23853157825433
H         3.64490332373553      -0.23742602174354       0.74781346954321
H         2.18516620794156      -0.76033321653030       1.65117641614612
H        -1.73802431159434       2.48889363879314       0.14416037869928
H        -2.47265325079762      -1.73962395897216      -0.40326688364655
H        -3.37282139947402       0.58001531187058      -0.02561764514053
B         2.59718554989014       3.10314129178497      -1.29798248366232
F         3.04145645140272       4.25203947216176      -1.93866081773742
F         3.66451710968655       2.27048720770819      -0.86477150497618
F         1.73936131109132       2.32128666284855      -2.15865868820454
F         1.79985061220040       3.44456589994930      -0.12665608004988
