34
C8H18F6NP optimized with ADF in AMS.
N         0.91653292034640       0.40155685095277      -0.23676956113924
C        -0.43795972356021       1.05750664361640      -0.41606276320094
C         0.75688962604663      -1.11127990114304      -0.32841042593804
C        -1.48587100474387       0.54918180310144       0.56032050913531
C        -0.28818237902800      -1.64779450991049       0.63232572924760
C         1.80424937409344       0.89092523660410      -1.37359909885233
C        -1.64149164375800      -0.96704541796879       0.45406734006085
C         1.51935339195525       0.80965684109137       1.07563554513910
C         3.19569088932524       0.29880510205634      -1.41889284043603
H        -0.74568345138595       0.83510114796966      -1.45082612930167
H        -0.27719783816689       2.14241005138721      -0.32511276242646
H         1.73853475391486      -1.55791889227618      -0.12304338073181
H         0.46746882795238      -1.30523028516546      -1.37531272115579
H        -2.43154269232896       1.06443105801531       0.32079895410904
H        -1.22489079019090       0.84039610013772       1.59158830906124
H         0.07944540452101      -1.55388294013957       1.66609289465153
H        -0.35904746028202      -2.73171375111824       0.44354635364678
H         1.24764568238594       0.66027023641690      -2.29595556007461
H         1.83892043618384       1.98654135508433      -1.25957648267992
H        -2.35942040955615      -1.32983029638680       1.20682450017071
H        -2.05950493027256      -1.21957909521917      -0.53855027011713
H         0.87493771614338       0.47562775840061       1.89217587398960
H         2.49754235899131       0.32990741891393       1.19424923861196
H         1.60306699205836       1.90472281007024       1.07898105594367
H         3.72730424047487       0.77778486938530      -2.25532335913366
H         3.77135259012253       0.47813520300414      -0.50234123364674
H         3.18900625662235      -0.78338347326111      -1.59539696995612
P         3.98141628347584      -2.25755580715237       1.86678415154344
F         4.26902736311216      -0.62313117912580       1.56045323916930
F         3.55160205342132      -2.43041407950526       0.24571155239779
F         5.53435661487081      -2.59741983710875       1.48788636099187
F         3.63571019306285      -3.83665368765346       2.12130663820106
F         4.35615464314436      -2.02435768427674       3.44167739990625
F         2.37985481804838      -1.85860491809656       2.19495513981338
