52
C14H18F18NP optimized with DFTB in AMS.
N         0.43476475771112       0.22470370000676      -1.94484121473389
C        -0.99732269947778       0.57181182851965      -2.25206255037762
C         0.54539616344369      -1.25639002716795      -1.72241925146687
C        -1.96578236789430       0.11923371487703      -1.16734133346502
C        -0.39374686520752      -1.76060546633870      -0.63330928082937
C         1.24664190743564       0.63611205260355      -3.14876491068770
C        -1.84538504804372      -1.38309537253253      -0.92005612765657
C         0.90831512740538       0.97832829733120      -0.75523545681780
C         2.72610399136048       0.29494256815901      -3.07548263664281
H        -1.24476634053262       0.07294370100631      -3.19040186439233
H        -1.04561420866290       1.65391969922011      -2.39326638177741
H         1.58062404535859      -1.47594810720309      -1.45626250897092
H         0.31042516867198      -1.73342217449026      -2.67435604680104
H        -2.97287647847814       0.35144193671841      -1.52304007352109
H        -1.80418317637039       0.67662497313178      -0.23961011236763
H        -0.08539362494535      -1.37822743352642       0.34473274480755
H        -0.29783991717878      -2.84928706008854      -0.61125613644503
H         0.80432599408033       0.14159658625527      -4.01408713277788
H         1.11332079234482       1.71587283738934      -3.25656730730771
H        -2.47165887340092      -1.66680216286999      -0.07130984696100
H        -2.19675941125912      -1.92519839626945      -1.79962153734441
H         0.26798151056232       0.76514566870204       0.09607926650633
H         1.92668288869947       0.67631651898022      -0.52170170669406
H         0.87731683136664       2.04338582325915      -0.97839715864030
H         3.18536040626461       0.66659074928107      -3.99109164744641
H         3.22041229622926       0.76690123131950      -2.22775137800759
H         2.88721869636075      -0.78033865451170      -3.03552007260875
P        -1.22060919691440      -2.39805091340997      -5.80200790164191
F        -1.51281542009723      -1.07542378138792      -6.76768452415855
F        -1.89006617111752      -3.46343220316290      -6.87990133047699
F        -0.47984946261630      -1.34061721081186      -4.63554460213295
C         0.47831116092544      -2.48379349869823      -6.78234703336313
C        -3.02581283592136      -2.03186631104598      -5.01444124613702
C        -0.86744478967413      -3.87064268033966      -4.44993182662937
C         1.51923150035660      -1.35318398861631      -6.55156150103804
C        -4.03557897617853      -3.15536527586219      -4.62179987830380
C         0.49039637941950      -4.48260311234788      -4.00885897725527
F         0.20295078479511      -2.47942937626844      -8.09413642773217
F         1.11704143778062      -3.64002314102110      -6.51743148015724
F        -3.70079706316442      -1.28855989404928      -5.90399625461267
F        -2.89745752899618      -1.26128771068635      -3.90089212211930
F        -1.68099474560003      -4.90604741090735      -4.70698877944608
F        -1.31563155712683      -3.29808386204044      -3.29031318993513
F         2.48888385728015      -1.40646834762410      -7.46066102289411
F         2.09711719240385      -1.47120246162493      -5.34560015311887
F         0.97746001079482      -0.13789006148821      -6.60476041584600
F        -5.25186156596824      -2.61155109470472      -4.50571344863219
F        -4.10543246557852      -4.11226909569610      -5.53608879405098
F        -3.74764436068203      -3.70921955275777      -3.44574285249135
F         0.93554255001843      -5.42505302753617      -4.82010991753622
F         0.35679515597690      -5.02627100186331      -2.79234006974417
F         1.42238287724081      -3.52495955961058      -3.89509227611924
