25
C5H12F3NO3S optimized with ForceField in AMS.
N         0.00376186939241       0.00600049469699       0.00219236857524
C        -0.90624828920638      -1.10920654097847       0.34254481116615
C         0.65655721899858       0.50148519255096       1.23415590714792
C        -0.77169715291660       1.10184510909472      -0.62021265959643
C         1.03472328301181      -0.47016897352959      -0.94616203943138
H        -0.35015511264738      -1.95007248332305       0.81463442520450
H        -1.68963851995500      -0.77455666928891       1.05690864224931
H        -1.41534028329647      -1.50203300515587      -0.56623279337502
H         1.34947474847462       1.34277586782605       1.00814675082400
H        -0.09801541074371       0.86756793139731       1.96610225502504
H         1.24583439837125      -0.30502958538336       1.72564501024130
H        -0.11144175554312       1.95847924749446      -0.88358946931982
H        -1.27272830339039       0.75685657620677      -1.55258205373134
H        -1.55900516436493       1.47689268540425       0.07190465918533
H         1.73500555303706       0.35083347300155      -1.21955083592558
H         1.63349987056760      -1.29720314417801      -0.50260485563267
H         0.56978091954893      -0.84958011225191      -1.88382538674863
S        -3.91432123794966      -1.77603456364103       3.41663666019737
O        -3.94972753054573      -1.85810249396852       1.88371719515911
O        -2.88606309381585      -2.85013700503693       3.80103309164271
O        -5.25076230849539      -2.41095445925643       3.82777996550368
C        -3.60202870758876      -0.12437639961088       4.10255887984226
F        -4.59070523237214       0.74438556424932       3.68251138947970
F        -2.37304874384222       0.33294687308443       3.66767542924122
F        -3.60513077152853      -0.19074785420384       5.48265182247600
