33
C7H16F2N2O4S2 optimized with ForceField in AMS.
N         0.15071712553056       0.30014023347168      -0.07057152578786
C        -0.43706530501079      -1.01749417298974      -0.43204745816875
C        -0.95235110342840       1.06512569333455       0.58653526255956
C        -1.94354432881143      -0.85802274284358      -0.44170974575308
C        -2.19534763969680       0.18623037364243       0.61374757570700
C         1.29023933051520       0.14994138230397       0.88523408459153
C         0.58650427243334       1.01869509220984      -1.29620402656580
C         2.49045201969685      -0.63844988540612       0.33583238749899
H        -0.19116410758307      -1.79680699510891       0.32618397375658
H        -0.08125453362600      -1.39819755885246      -1.41704668485773
H        -1.20109840075101       2.00683004109277       0.04321539064801
H        -0.70827554659975       1.37831839555354       1.62807936911931
H        -2.46350899957220      -1.81275620802810      -0.20803756278112
H        -2.27913370649992      -0.48169651198807      -1.43339452621360
H        -3.11950386440214       0.76673616145582       0.40269636865380
H        -2.28613988883490      -0.30425547598689       1.60860609377760
H         1.65863082039667       1.15309561806396       1.20033437835686
H         0.94286480939189      -0.36429492585695       1.81114745716050
H         1.32157585810766       0.42477676829620      -1.88085197302271
H        -0.27655310015461       1.21243219988940      -1.97230077377998
H         1.05172827462169       1.99621792911135      -1.03794085332764
H         3.21047188777449      -0.81520152310925       1.16183850246273
H         2.18281767470932      -1.62383418893644      -0.07033099838074
H         3.02303310004334      -0.06106211661629      -0.44737253828636
N         7.04529117574779      -2.05427034973157       2.06173763851277
S         6.13620054563207      -3.41265506744770       1.98441424531600
S         8.67526763574662      -2.13032484086596       2.18546391881352
F         6.10971023865472      -4.14394949977282       3.48999273730069
F         9.31710978475472      -2.61004657486184       0.71560160370042
O         4.73536179145744      -3.05891753445563       1.57568427117128
O         6.72696012160526      -4.36951487292502       0.98712300564566
O         9.06453476204132      -3.13095231171340       3.23748403106409
O         9.21563260381006      -0.77727441012877       2.55015669200848
