51
C13H24F6N2O4S2 optimized with ForceField in AMS.
N         2.00588944461675       0.44257316088139       0.09485452614114
C         2.24718299538679      -0.86463054375863       0.76616174742302
C         3.12015434235249       0.60229200100679      -0.88897441156968
C         0.69888511776842       0.45242359861008      -0.63229807508670
C         3.67350239873812      -1.28063866479544       0.46985760499021
C         3.94983482128203      -0.67143379668415      -0.87808192167643
C         2.06346398658487       1.54917004557147       1.08489429779518
C        -0.54527898353650       0.24546269265687       0.26439382611921
C        -1.80802776513644       0.09850566199652      -0.59447953210785
C        -3.05473738710450      -0.09831012963119       0.27521793775620
C        -4.31257229599274      -0.21196150883566      -0.59375051780069
C        -5.56052145314914      -0.39772074369746       0.26354761304803
H         1.58497057503521      -1.66416302598507       0.36181305098028
H         2.07741787365632      -0.82742264972379       1.86667745238459
H         3.79518394969453       1.45306910188356      -0.63490898850596
H         2.76629581601704       0.80236859845006      -1.92675352980650
H         0.70441685985570      -0.34488021662843      -1.41188758271972
H         0.57548226894288       1.42022653308597      -1.17101225291925
H         3.79001048820645      -2.38621466433565       0.45333285678114
H         4.35618647918597      -0.84335147955855       1.22847566839825
H         5.03334758727540      -0.46529413968117      -1.01861288303965
H         3.59439092083706      -1.35807869791814      -1.67864406982498
H         1.32741456226647       1.40680407343293       1.90400149845067
H         3.06626000340367       1.60065484716465       1.56646261631426
H         1.86266777981972       2.52864734173686       0.59612304200772
H        -0.43219144163908      -0.66357897742809       0.89145000942057
H        -0.67965295787773       1.12111714336181       0.93340139027665
H        -1.69478753929304      -0.77669846032158      -1.27193641261741
H        -1.93490174200933       1.01181249910140      -1.21693292771176
H        -3.16241280451869       0.76579253251254       0.96743714877814
H        -2.93961503640425      -1.02460459063957       0.88065113721234
H        -4.43052454228984       0.70966967477716      -1.20463721585352
H        -4.21583503806065      -1.07984800679706      -1.28218775527501
H        -5.69215990472229       0.46937170674924       0.94532795895944
H        -6.45372406290365      -0.47294446336972      -0.39189030076430
H        -5.48042285879411      -1.32873086084470       0.86409125456119
N         9.02525342336333       0.21316400921428       3.03802250616285
S        10.35561750151559       1.10706649869214       2.69861763198820
S         7.96175007080002      -0.26451501152449       1.88617484828006
C         9.94710418260992       2.83796047621071       2.80290124968091
C         8.29367487891045      -1.95830846724106       1.44935815381676
O        11.42627435695229       0.79873147765054       3.70655800602390
O        10.86109952159149       0.79550122084760       1.31749796934060
O         8.07574908582201       0.59831334426675       0.66023238240365
O         6.56874753370816      -0.16993697211164       2.43911841627435
F        11.07799497501198       3.59410581140087       2.56180058084104
F         9.46587537312118       3.12457373546628       4.06615238918400
F         8.98141682996584       3.14848607006927       1.86485540797401
F         7.41856823883383      -2.35993534784220       0.45827437172561
F         8.12920144434421      -2.76389592660860       2.55997675232688
F         9.59156601805578      -2.07349851833572       0.98896699855836
