38
C10H20F3NO3S optimized with ForceField in AMS.
N         0.24628688248742      -0.10538143071569      -0.20020542432856
C        -0.61771432536668       0.71574420925343      -1.10973045053985
C        -0.51639568521483      -1.32664888161791       0.21918495944103
C        -1.98441869054956       1.08838328679136      -0.51146413169983
C        -1.89551845919551      -1.02382160296558       0.83849617224550
C         0.66733889843063       0.66723627832783       1.02062034037110
C         1.43353384023825      -0.53910250915297      -1.01401265633576
C        -2.74487521175859      -0.16694848075097      -0.09531968107860
C         1.55117356958291       1.90084119836293       0.76061430924179
C         2.50375275867893      -1.34814297753797      -0.25887434483707
H        -0.82207470610596       0.15434299944448      -2.05189525820626
H        -0.10256071257817       1.64504837977930      -1.43139605398159
H         0.05421879989672      -1.91365160716800       0.97117956461263
H        -0.68395342267973      -2.00027810329658      -0.65298898117232
H        -2.57886348313851       1.62790913039812      -1.28034746860207
H        -1.87251202926295       1.77948732279474       0.34910584243440
H        -1.78788121507314      -0.52402052974253       1.82362319145889
H        -2.42503299932365      -1.98336507079940       1.02425072585216
H        -0.20968919461260       1.02583758357833       1.59303448478548
H         1.20773836703462       0.00581308956918       1.73201949131660
H         1.10234910032364      -1.16660597948056      -1.87348813523646
H         1.93440355381808       0.33835313530000      -1.47925582226856
H        -3.68722097290364       0.12156397813937       0.41779169812355
H        -3.01229238101246      -0.75726809454109      -0.99957864425455
H         1.81011472026623       2.36345059396015       1.73644474830040
H         2.50614682526795       1.63410178931669       0.26679506914057
H         1.01720041014037       2.67037375919343       0.16906669670401
H         3.31396095965691      -1.61677241180407      -0.96931870347867
H         2.96851874041581      -0.75818890099594       0.55539800320765
H         2.09471479554139      -2.29541724285897       0.14479067130391
S         6.82570670755271      -0.55975719522985       0.71407270634597
O         5.62456961208186      -1.50300361708550       0.86793838078022
O         7.79128431634538      -1.04945609160381       1.80285853952412
O         6.30252346285962       0.76700040253031       1.28336744767854
C         7.52755804928962      -0.46550181244899      -0.95752325132695
F         6.59447147758268       0.07917256865129      -1.81924923857490
F         7.86570630815053      -1.73469304225395      -1.38721493136131
F         8.65726411583370       0.33036954535940      -0.93868487818523
