52
C14H23F6N3O4S2 optimized with ADF in AMS.
N         1.09704385241751       0.14947837769303      -1.29043282678760
N        -0.65293098337422      -1.01288483921876      -0.76137992087025
C         2.49264566985558       0.51214077757839      -1.57447030250928
C         3.22758208219735       0.92591840993221      -0.30087465788125
C        -1.50534280378149      -2.15446918238058      -0.39288484028436
C         3.23372573789998      -0.17191682009790       0.75784849604651
C        -1.45120729754657      -2.41986520191455       1.10977382066044
C         0.63560898183577      -1.10055417660412      -1.12241414306258
C         0.08670143329947       1.04890931734159      -1.01591105412669
C        -1.01440369459873       0.31627286374366      -0.68166930648132
C         4.04642729950734       0.18263772951384       2.00154715773704
C        -0.08109814239262      -2.88119843527881       1.59937313779396
C         4.03929611871783      -0.95155838496083       3.02548433450262
C        -0.06233896729163      -3.16365974669493       3.09794091088667
H         2.47108051901744       1.31801370762186      -2.32376498475046
H         2.96052216687423      -0.37107113825721      -2.02877559557262
H         4.26228481632227       1.17764061592155      -0.59418012510150
H         2.77936583480673       1.85244077331673       0.10381147321389
H        -2.52304299562425      -1.90453287756801      -0.72835533401871
H        -1.14528922022143      -3.01268620495728      -0.98076589266982
H         3.62622695821643      -1.10736945124839       0.32678385558113
H         2.19641011684809      -0.39250631349427       1.06953803118949
H        -2.20615090129597      -3.19711604943299       1.32573681092638
H        -1.77090108752001      -1.51155343664563       1.65556656184219
H         1.19956883197195      -2.03866915096354      -1.21354616091457
H         0.23337102723004       2.11901382152929      -1.09526904685890
H        -2.01871366069518       0.62308423308895      -0.41580496993689
H         3.64361859185992       1.10837712891419       2.45383001001917
H         5.08654899391642       0.40788691932695       1.70266450593739
H         0.22539068378732      -3.77828071171854       1.03669227672148
H         0.68178452825395      -2.11734443508882       1.37241375727302
H         4.46209355528431      -1.87019206758324       2.59148586138331
H         3.01018219557234      -1.18629485725821       3.34186375475511
H         4.61913377854016      -0.68721139406946       3.92234239034222
H        -0.31165850233598      -2.26023037287520       3.67846107252837
H         0.93406795049409      -3.50823140724996       3.41199167012768
H        -0.79213186111211      -3.94568927247375       3.36325566214885
N         1.93341939419590      -3.93494450816471      -1.03441919443325
S         1.32887322868731      -4.70281007314340      -2.32463974637436
S         3.37138823996190      -4.29837937923259      -0.37400742545444
C         0.62327440242224      -6.35296315990507      -1.71202581357766
C         4.66499060227943      -3.48106772664793      -1.51037219394834
O         0.12185994311925      -3.94353195490769      -2.67159639317775
O         2.28934596415362      -5.07226171393260      -3.35357859634281
O         3.72340893823770      -5.70834063478395      -0.37413304760972
O         3.45192902144103      -3.49983128277890       0.84465072514783
F        -0.29329047901965      -6.78425620856255      -2.61281654765595
F        -0.00072839569668      -6.18769269502698      -0.51487381260547
F         1.57545429761395      -7.29124099211999      -1.58611218713744
F         5.72034173195710      -3.07636637559742      -0.76196709340834
F         4.14478167042125      -2.37127807976006      -2.12259718783946
F         5.10396135448932      -4.32059041762339      -2.45950911797296
