42
C10H18F6N2O4S2 optimized with DFTB in AMS.
N         1.00497463609237       0.22741877341416       0.07679323525159
C         2.01296117331368      -0.30517742908476      -0.90389630826170
C         1.58307992354052       1.55269342743893       0.49561017623909
C         2.45361743052707       0.91312847846995      -1.69938546100733
C         2.40924103976516       2.06234936207569      -0.68690850830971
C         0.86125751493184      -0.67051227376567       1.27041698349438
C        -0.30013984477806       0.42928531582394      -0.64044457477161
C         0.47832994047493      -2.09754009413327       0.91536293968586
C        -1.46620948642163       0.83539580055831       0.24979513881133
H         1.55748019117647      -1.08290845616457      -1.51574156451413
H         2.84643638238488      -0.72473966308252      -0.33790466467420
H         2.21640651902302       1.37840647604057       1.36598599895706
H         0.77450572400309       2.22673561484892       0.77706399667538
H         1.77964248326602       1.09950350136353      -2.53960796161484
H         3.45826619107332       0.76097632695041      -2.09332989985217
H         3.41594479968746       2.30668318701751      -0.34190518467548
H         1.96617597316093       2.95940457540770      -1.12258401070076
H         1.82125031327274      -0.67350207756939       1.78609343682982
H         0.12042291194131      -0.21644131416959       1.93105725889019
H        -0.12718701788402       1.20106358520505      -1.39312285518742
H        -0.53860686287866      -0.50482539178047      -1.15419134052787
H         0.35559094590599      -2.64783870638896       1.84790807214244
H        -0.45673435862578      -2.14955066924240       0.35927050517056
H         1.26704209235029      -2.57881999671649       0.33996219143856
H        -2.29417872731977       1.11968123215418      -0.39950027072625
H        -1.79734681539323       0.01159481163275       0.87948934620395
H        -1.22041924573210       1.68755172836458       0.88097733501641
N         5.06396906847657       0.67060378597611       0.85177127547633
S         5.90588756795450      -0.08741786227455      -0.30097350278088
S         4.44704804481664      -0.29454667177133       1.96803616400381
C         6.56672128844000       1.44528546942771      -1.10534276901148
C         5.81140578310060      -0.85965359279627       3.12638957251511
O         7.03826061971136      -0.84124604305856       0.16535514463880
O         5.05840321562199      -0.69572105280499      -1.30872926612988
O         3.84703504501628      -1.52365211812093       1.47184523577443
O         3.58950272958863       0.53800826187796       2.79164181562022
F         7.34855943850874       1.13139991672424      -2.12039199365428
F         7.24539498381185       2.18078456947845      -0.24312400455485
F         5.54516916020237       2.17063087529076      -1.56567375445616
F         5.29717293362484      -0.99843939162449       4.33883076636498
F         6.77100192390071       0.04695570872815       3.16841990339019
F         6.30699936326710      -2.01358957082037       2.73600044052051
