46
C12H23F2N3O4S2 optimized with ADF in AMS.
N        -0.02982332770354       2.36908519829503       0.27482847250753
N        -2.03214548179335       1.57102683591672      -0.01180794086430
C         1.43072444901466       2.53952462276540       0.19937328073815
C         2.18761879263771       1.53625394603294       1.06491515666991
C        -3.13929946634194       0.67392626702723      -0.38173544007829
C         2.12491028782566       0.10173633477399       0.54792058613688
C        -3.24389281289334      -0.51408801472935       0.57406562689315
C        -0.75126669042576       1.45526016455562      -0.39361820380264
C        -0.87008942555510       3.07111848086194       1.11281483512739
C        -2.12699988335011       2.57600521977295       0.92616019243178
C         2.95038070313420      -0.86501959132849       1.39671238304226
C        -2.18142570718561      -1.58856087371649       0.34745787446244
C         2.78662050849635      -2.31162542662120       0.93771982507652
C        -2.20897395748266      -2.65161013295677       1.44418340034569
H         1.62957792875297       3.57435461752891       0.51413424594003
H         1.71501624582530       2.45093150720632      -0.86109699299331
H         3.23949588425042       1.87364395373571       1.09567973731834
H         1.80700080830265       1.57956891374567       2.09969652347007
H        -4.04875438215039       1.29169518265586      -0.35969882489917
H        -2.97284783168378       0.35352824158835      -1.42202053831424
H         2.47487698707750       0.06475044871451      -0.50349131431203
H         1.07949859273258      -0.24869397479089       0.56465932873372
H        -4.24909807427456      -0.95291322720455       0.44402561049743
H        -3.19177611291912      -0.13786797560283       1.61001761045013
H        -0.36469494053792       0.74986965385528      -1.11685108068361
H        -0.51177974728229       3.83421357916518       1.79322224012754
H        -3.06128839059828       2.82219730237005       1.41474928825551
H         2.63082163473852      -0.76592312633664       2.44747215201950
H         4.01506115161094      -0.57089027531178       1.35276002347255
H        -2.33349773007219      -2.05185386091155      -0.64593200148886
H        -1.18130747339671      -1.12485792326372       0.34058079574651
H         3.08979657685538      -2.43445917660156      -0.11527516326151
H         1.73486433952389      -2.62810083003649       1.02796545435862
H         3.39460118437584      -2.99948513517249       1.54513163818688
H        -2.01927659329028      -2.19345093640677       2.42637162756962
H        -1.44260848571778      -3.42212767396106       1.27233380180641
H        -3.18945260047268      -3.15254992206367       1.48356965488931
N        -0.78634876608214       1.81203529203746       4.11912351333272
S        -0.38128969555984       0.27212099448253       3.96101766850231
S        -2.33654105819578       2.23450775970615       4.21028201039179
F        -0.57578839298700       0.06467645317053       2.28763275772553
F        -2.68166956242826       2.02509729154248       5.79885428040062
O         1.05748025040022       0.16854886936589       4.11712171454005
O        -1.27418817218859      -0.72607844404014       4.51397761520301
O        -3.28430109505312       1.37162454355088       3.51613738174198
O        -2.40275008423263       3.67042309613288       3.99762132978607
