52
C16H30F3NO2 optimized with ADF in AMS.
N        -0.14758441666978       1.48745230878080       0.52214901650587
C         0.20267728994563       2.29960552199288       1.76984220431442
C        -0.52126811004422       2.54298615267065      -0.53140273650757
C         1.05849470046207       0.70047109763435       0.04859054516066
C        -1.33085591644133       0.59678922221628       0.82984687056313
C        -0.70314901763424       3.51290784538360       1.69804277298422
C        -0.66303436754665       3.87762482750085       0.21012151027710
C         1.57127174318482      -0.30758231602263       1.05848094466363
C        -1.74441597433524      -0.34381821011223      -0.28974804293718
C         2.99576859522641      -0.72812856130334       0.69239692763673
C        -3.06568154981483      -1.04108726783724       0.04286410688357
C         3.56172750613344      -1.76461855519368       1.65902595848418
C        -3.49646729229063      -2.02117609784654      -1.04728991016814
C         5.01589896138712      -2.11090741111608       1.35387415592782
C        -4.81719638138851      -2.71690918168289      -0.73288477441461
H         1.27388723947590       2.56803452887875       1.67153278288810
H         0.05390891607725       1.66818921804509       2.65439073058412
H        -1.44422421703287       2.20979255974639      -1.02059320678174
H         0.30581234258044       2.58629351916132      -1.25028776284014
H         1.81607213779454       1.47643042665158      -0.15081577071191
H         0.77424901372671       0.22487585876473      -0.90233443941656
H        -2.15845414656249       1.27269260237402       1.09535881469246
H        -1.06208740809854       0.02165340937945       1.72855498937056
H        -0.31962788280379       4.32272633895476       2.33581867960490
H        -1.72665765764261       3.27707325344499       2.03500372306147
H        -1.55188955419508       4.43549993458189      -0.11646248056838
H         0.23906024618668       4.47207555096232       0.00104321838886
H         0.91471631612487      -1.19515928682512       1.12333895358443
H         1.61291485066391       0.15558542111149       2.05850551843050
H        -0.96410803725840      -1.10607170384306      -0.45033242849181
H        -1.85744835402282       0.20377884254076      -1.24154247835664
H         3.62434719653517       0.17982365426800       0.70907212966938
H         3.02237129673122      -1.12872822290159      -0.33904070698772
H        -3.85832487035690      -0.28283607190810       0.18688707336738
H        -2.97126212578440      -1.58109242128651       1.00393921293831
H         2.94302297828860      -2.68089474596048       1.62883912269174
H         3.48627669645377      -1.36826860131869       2.68842821045537
H        -2.70335616959278      -2.77765113113821      -1.18870365210197
H        -3.58262217599123      -1.47911639155871      -2.00673332848376
H         5.40883739008070      -2.85246860947620       2.06503005780046
H         5.11908258483011      -2.52636315910592       0.33847265956320
H         5.64930174712090      -1.21215997879624       1.41328360235402
H        -5.09782724336815      -3.41347306809895      -1.53639139688592
H        -4.74988568394409      -3.29231990617495       0.20416295917517
H        -5.63413927959240      -1.98635698448077      -0.61976186324907
C         3.20325434806211       3.50818256390990       0.30780657255107
O         2.37948409733294       3.53705979135446      -0.64114323539738
O         3.23635743721026       2.76831350818202       1.32459906244222
C         4.35876534806729       4.56487578726422       0.25239504694819
F         4.20426960153616       5.49914674343649       1.25083946575218
F         4.41742860103426       5.25428830997621      -0.92250396065195
F         5.58554848465870       3.98626393941989       0.43471896763703
