43
C13H28ClN optimized with ForceField in AMS.
N        -1.55489895834051       0.10588765204814      -0.08267158272020
C        -2.57141698244952       0.50042274526663      -1.11312215174829
C        -1.79612948681870      -1.32071603148328       0.31288119246003
C        -0.21069284521893       0.19786285437046      -0.75122547008122
C        -1.62868544786386       0.98594894408255       1.13656806983453
C        -4.02982185583525       0.28157990364094      -0.67580827829948
C        -3.23903948784532      -1.60911637890663       0.77321397112232
C        -4.25528148654372      -1.17345593280263      -0.27811679333438
C         1.01226585842396      -0.12232421792827       0.14430062141450
C        -1.27065964612521       2.46711633929605       0.91473701101117
C         2.31568254707593       0.03496660405152      -0.64961078596681
C         3.53758792475135      -0.30384598614681       0.21285192401848
C         4.83544165912470      -0.11791955209243      -0.58157402526552
C         6.05590439181919      -0.47858185612202       0.25958641296444
H        -2.42467596477977      -0.09735041451249      -2.04309473402800
H        -2.44723754672265       1.55836738193416      -1.42573758133978
H        -1.12649343732105      -1.62275489160469       1.14730097883978
H        -1.57432457391179      -2.00471270059058      -0.53890554625823
H        -0.06630864049617       1.20807279086438      -1.19479847162686
H        -0.17158508420594      -0.49887280283597      -1.62073710271277
H        -2.64118652172739       0.97151327851639       1.58407643562415
H        -0.97176485667636       0.59399495481038       1.94233034568325
H        -4.70030915251567       0.52602116752526      -1.52789201522284
H        -4.30968076610674       0.96147837341933       0.15486141080554
H        -3.45250873482184      -1.11008713618190       1.74150682319151
H        -3.34920615687384      -2.70198667184934       0.94405588816373
H        -5.28333743700719      -1.29260700329666       0.12692185268358
H        -4.16056309432394      -1.82271472531162      -1.17652408230793
H         1.05625723094690       0.56494900555962       1.01313207057785
H         0.95598855827494      -1.16668001191893       0.51348566134187
H        -0.22749255696784       2.59614753426855       0.56456373832134
H        -1.97067281419371       2.95707795264209       0.21014763213446
H        -1.35532562520907       3.00304649673863       1.88326758311927
H         2.40052301436524       1.08361717059783      -1.01058302318470
H         2.29390625898379      -0.64092962386104      -1.53273923589834
H         3.46322328052171      -1.35906513339245       0.55687791848959
H         3.55511964538877       0.35901571771969       1.10594024173341
H         4.81893021590332      -0.76544917583878      -1.48519640430123
H         4.92543171847583       0.94073810046116      -0.90934329868003
H         6.00490424205430      -1.54115305613282       0.57930443458416
H         6.97574274828839      -0.33479077631321      -0.34392614972029
H         6.11426297247827       0.17394781291062       1.15659887490304
Cl       10.04828028622541      -0.12469866740180      -0.63824115902509
