52
C16H34ClN optimized with ForceField in AMS.
N        -0.04976335426839       1.98672698261052      -0.02197397131296
C        -0.73563630243957       2.87107690885252      -1.01353644010166
C         0.58983977976877       2.92425544309851       0.95159678379220
C        -1.05340044012815       1.13728402483437       0.69840155681136
C         0.99615500287698       1.17594211146720      -0.72604983778362
C        -0.27213177866244       4.29533215008043      -0.77636500020912
C         0.04986471681425       4.31684558133103       0.69059377879911
C        -1.78985562423168       0.10575403507187      -0.19036807553555
C         1.78528340470487       0.20405504594424       0.18340176626364
C        -2.86680110231361      -0.62937244699041       0.61863526192619
C         2.89601982448104      -0.49454116357138      -0.61151560657039
C        -3.60224824846351      -1.66646939813813      -0.23902402115005
C         3.68363443066254      -1.46950972404938       0.27145548722632
C        -4.64045422219321      -2.42842104191198       0.59410666722965
C         4.76213843161698      -2.19711615427318      -0.54020538249340
C        -5.33605067251494      -3.50318198548281      -0.23566803452670
C         5.54732436084038      -3.16995641665180       0.33409502348802
H        -0.53922439209391       2.58315027278325      -2.07171366146768
H        -1.84238000344634       2.86763350492754      -0.88546991248577
H         0.41234802381372       2.64486111043836       2.01537195781945
H         1.69483484924761       2.97869394241254       0.81935476776675
H        -0.56961847052501       0.59223228902693       1.53857242232553
H        -1.81766270698459       1.79390431934350       1.17620412462573
H         0.54094525858321       0.58874906654463      -1.55362738012492
H         1.72530423665076       1.86119969843891      -1.21839078101506
H         0.64858395938513       4.49731772329777      -1.36799254579070
H        -1.05644893644527       5.03874385340270      -1.03606909982254
H        -0.88056869680568       4.47863993363187       1.27928632560285
H         0.79268633086909       5.10609372400122       0.93697767682292
H        -2.26955151571059       0.60771789376315      -1.05676881415794
H        -1.07209077849102      -0.64813475689015      -0.57472838088315
H         2.24126476032860       0.74998819631541       1.03601460870880
H         1.10764562945422      -0.57572437654090       0.58816828253790
H        -2.38602890636685      -1.14240114012413       1.48087139295052
H        -3.60225895571700       0.10682559413588       1.01184535010520
H         3.59224025546452       0.26864647500070      -1.02444574463171
H         2.44130219233873      -1.05300834149588      -1.45952055051726
H        -4.11382984146469      -1.15149713212214      -1.08200444066518
H        -2.86590028072672      -2.38716909919358      -0.65809581417837
H         4.16422277551528      -0.90659154081685       1.10188459205894
H         2.98593441860392      -2.21805491487453       0.70754951434250
H        -5.40479204783939      -1.71870446834225       0.97936000085633
H        -4.14299444889331      -2.91439143397997       1.46184741358446
H         4.28757570103789      -2.76421623902931      -1.37070728413725
H         5.46698246980118      -1.45653649208390      -0.97736498351484
H        -5.84890770955411      -3.04771713711630      -1.10888364559357
H        -6.09249684992070      -4.02274111492639       0.38946362687152
H        -4.59782095938424      -4.25248884830013      -0.59247899652989
H         4.86752018960334      -3.93397888582047       0.76785523390845
H         6.31462525756510      -3.68602390385238      -0.28077141078645
H         6.05831281423930      -2.62403625117434       1.15548898453888
Cl       -7.28645717458252      -0.48501861380237      -2.11676590937751
