61
C17H24F18NP optimized with DFTB in AMS.
N         0.44867148525510       1.00083900481099      -0.53626605443414
C        -0.32365120572049       1.93624060616819       0.35364608924211
C        -0.10596850753789       1.14790940212161      -1.92545926326781
C         0.33262955606923      -0.40622906050931      -0.02964767752130
C         1.88921840015005       1.44857396704677      -0.58071660586084
C        -1.82053361152762       1.64746472262400       0.35894759630778
C        -1.59072460584285       0.82231911942646      -2.01008094106361
C        -2.40523207305411       1.69038658601051      -1.05192850796034
C         1.10906250424963      -1.44489778452278      -0.83863645518885
C         2.66946861388059       1.23953426971410       0.71619394005101
C         0.90052303215049      -2.82590204170492      -0.21742387356654
C         4.04617827959729       1.89368715999176       0.59398082250087
H         0.08008030108171       1.84959176523042       1.36390707613309
H        -0.13853356862434       2.94600737115618      -0.02198092825464
H         0.06116326206739       2.18637033729839      -2.21085916515851
H         0.47254868017365       0.50985578818564      -2.59447060673313
H         0.67399832577195      -0.40316588248739       1.00812743605680
H        -0.72485500750947      -0.67324623740814      -0.03302113229628
H         2.37024841811736       0.91222093688370      -1.40131957074209
H         1.87437729021568       2.50795574540170      -0.83556496430226
H        -2.02655790011217       0.68331108189974       0.83297013898530
H        -2.29243871791751       2.42040260568600       0.97135274722062
H        -1.89997711674879       1.02943791648887      -3.03766811779417
H        -1.76922375986778      -0.23942441575492      -1.81664740587286
H        -3.44001979926148       1.34087627038608      -1.02962217618450
H        -2.40456349736752       2.72182042643934      -1.40847263549542
H         0.75733854372149      -1.46091733989334      -1.87289173950462
H         2.17634576929440      -1.21372624911385      -0.84595714546228
H         2.13819992505675       1.68493459211857       1.56146404286618
H         2.80025007429347       0.17336033478037       0.92141863193782
H         1.44744373717398      -3.57145154228281      -0.79304837564236
H        -0.15697072133890      -3.09164707912392      -0.21851456118041
H         1.26447784596313      -2.84302162589615       0.81028659069533
H         4.62876339047419       1.68601200605188       1.49087752195946
H         3.94743328316874       2.97229143421656       0.48333854119517
H         4.58128203705246       1.50137141233415      -0.27069580885229
P         0.74168118698621       5.31263927188411      -2.89577382610956
F         0.37245359180992       6.52166784963879      -1.81963358922378
F         0.93476449378450       4.17455637247355      -1.60631113101700
F         0.51412303984915       6.34270070240501      -4.18236642501089
C        -1.17758002339107       4.90441511014132      -2.77309295853426
C         2.65209104614229       5.85298659530931      -2.66139816428189
C         1.24414896234075       3.87212100032566      -4.23532208403997
C        -2.21937359888630       5.86155486334516      -3.40668323631117
C         3.82086994132285       4.82749549551312      -2.50077613780195
C         0.33341031812891       3.13950361186632      -5.26376634429537
F        -1.50743441209059       4.81461508761400      -1.46562106903343
F        -1.42118932435656       3.67243242961952      -3.28886108429665
F         2.71910343777297       6.56704750783884      -1.52233536807630
F         3.01075506194348       6.67095582431825      -3.66139953948306
F         1.87540231360711       2.86523487301931      -3.56660804213759
F         2.18014513733726       4.48566060797391      -4.98469024250145
F        -3.45328220527940       5.43827896301565      -3.10386577816838
F        -2.11570839028814       5.89004765213011      -4.72950491962046
F        -2.08643069830374       7.09607728512792      -2.94214216890102
F         4.87111035484672       5.44706351443906      -1.95960712196424
F         3.49119937644536       3.82802712346542      -1.66484374737157
F         4.22549000290873       4.28281955096544      -3.63753021538497
F        -0.21428456847732       2.04371429718320      -4.71113264408080
F         1.05276682755430       2.72569310469375      -6.30450484468729
F        -0.64352345245528       3.90874926201884      -5.72263343547919
