32
C10H18N2O2 optimized with ForceField in AMS.
N        -0.68368169433169      -0.90114518916468       0.44019500302036
N         1.50843169513699      -0.54113331849168       0.34918841185216
C        -2.09017826151855      -0.77480636249726       0.81839892574954
C        -2.89698770482620      -0.06870869982925      -0.27914889560209
C         0.36012325146564      -0.25109432762788       0.99085190761478
C        -0.17772675083282      -1.63196873260013      -0.57425287610116
C         2.81689774656452       0.06156237682292       0.58622768018963
C         1.18161092364947      -1.40413069171942      -0.63409517309779
C        -2.40997070566995       1.35966846206530      -0.52086543077463
C         3.09220701463223       1.14113405744139      -0.45475685607658
H        -2.18113371277846      -0.20307550705321       1.76847675616932
H        -2.51320986230033      -1.78712233216999       0.99416905478226
H        -2.83300500781718      -0.64527002605603      -1.22715429151378
H        -3.96448333354821      -0.03542837489433       0.02777729981159
H         0.27898968706791       0.45197599665823       1.81098355430005
H        -0.75636802697800      -2.25963061367539      -1.23949162869998
H         2.84645237036754       0.51908366816821       1.59936755706323
H         3.60421177584986      -0.72152394170310       0.53867121647678
H         1.87353054642672      -1.81442990521974      -1.35820698794019
H        -1.37555011043177       1.35429337000307      -0.92526224167859
H        -2.43083155127104       1.94187407215345       0.42486215777435
H        -3.07183973782149       1.85814862970284      -1.25995461845722
H         3.11642166118978       0.69677273439115      -1.47219129842913
H         4.07030728560820       1.62288355448872      -0.25005728281566
H         2.29753300743697       1.91649210406308      -0.41549672692111
C         7.99835000207162       0.88201438981592       2.61803053054885
C         6.69161033350221       1.26144943382619       1.99739052882107
O         6.28093169482361       0.65018375343150       1.02460004880484
O         6.03287015818657       2.17927763776440       2.45926333601821
H         7.94457518417726      -0.16383839317218       2.98676465157468
H         8.80688517654797       0.96131271557213       1.86105402855855
H         8.23746372102060       1.55224306870577       3.47131340057764
