47
C13H28BF4N optimized with DFTB in AMS.
N        -0.27963725260715       0.83174771599027      -0.01580601286348
C        -1.50251104338717       0.53205871935359      -0.82777515948275
C        -0.54305086314944       2.04516014167478       0.83662807680250
C         0.82299585102257       1.15625838711409      -0.99133681491953
C         0.10593790539528      -0.32042941674739       0.86879347714539
C        -2.74505148939166       0.32321771329328       0.03025218848946
C        -1.78403391504771       1.90797301021741       1.70748228736252
C        -3.02002658341916       1.56138985582650       0.88208208143460
C         2.17669956044693       1.48063561770014      -0.36230160879645
C         0.43120775677799      -1.62842555513560       0.15735388489755
C         3.21402929406731       1.68737345182037      -1.47176859004285
C         0.91224808353367      -2.63095082998416       1.21686258665897
C         4.57299372815953       2.05017978475925      -0.87592730526925
C         1.35475873178151      -3.94356088672681       0.57640896233603
H        -1.29517195009780      -0.35308877238141      -1.43250773423795
H        -1.65639666376797       1.38304578315207      -1.49809844402199
H        -0.64838458840645       2.89276912565965       0.15308172534338
H         0.33061469794139       2.19240766757139       1.47404864043123
H         0.47561125180083       2.01050029985130      -1.58024185856312
H         0.91500201318303       0.29905283953696      -1.66359980288286
H        -0.70592077829098      -0.47693827783499       1.57807117310817
H         0.97553346002206       0.00574166530345       1.43611525356448
H        -2.62896044731013      -0.55771028573655       0.66614785710669
H        -3.58416090720907       0.13777577416055      -0.64589225379891
H        -1.92986862511112       2.86826022553034       2.20865483609236
H        -1.61423355608228       1.15858516814154       2.48343725242058
H        -3.27974663684208       2.40147766222576       0.22860463048873
H        -3.86780465938404       1.37135818107076       1.54429399948519
H         2.50812469410963       0.67228356049411       0.29173944369749
H         2.10753941194850       2.38583177200767       0.24300987141139
H         1.22532936650720      -1.48437040333797      -0.58045426248926
H        -0.44562472565644      -2.03127235906769      -0.35979501562599
H         2.88167815946161       2.48701522421529      -2.14319512116556
H         3.30535233017581       0.76948692231741      -2.06329852224657
H         0.10123293223222      -2.82271006424273       1.92638773475892
H         1.74514529297336      -2.18893227275162       1.77210305344174
H         4.90872213275490       1.27069500700104      -0.19174547787273
H         4.50729992173226       2.98975796312071      -0.32724779562317
H         5.31089539272710       2.16000427743368      -1.67060300614255
H         2.18061565170297      -3.77299699192631      -0.11579010356528
H         0.53067985588565      -4.40299480780537       0.02775467763860
H         1.68737125245674      -4.63700643582165       1.34851876649169
B         1.76749202490863       0.95817345036397       3.39702131708701
F         0.35574670868265       0.78231789982488       3.43224887653314
F         2.01304435250989       2.01098906016129       2.46930192346198
F         2.33321523298577      -0.21553098207224       2.85304580118316
F         2.26883866187363       1.25140406757896       4.62959888693734
