43
C13H27NO2 optimized with ADF in AMS.
N         2.33288286412979      -0.19774552698587      -0.02204601513583
C         2.38840315343087      -1.67003553191166       0.33547854231990
C         3.47028524571126      -0.00173972204728      -1.04926205956137
C         1.01494425737613       0.18915831339566      -0.63823680137855
C         3.86755928380062      -2.00110884083505       0.29047454951237
C         4.35245195869268      -1.25306467759071      -0.95858172844724
C         2.63226738456913       0.63409181016888       1.19443863228868
C        -0.19616284461383       0.02082314983797       0.26319569268498
C        -1.48753876892603       0.33374652213468      -0.49557397563329
C        -2.73004197308382       0.18826852341821       0.38013903920759
C        -4.03150972610091       0.48804141885797      -0.36047122903094
C        -5.26189139658584       0.33903857933593       0.53107204605399
H         1.83387781725032      -2.20941202420677      -0.45014708687121
H         1.90216470403127      -1.82728846784514       1.30758351605896
H         4.02585610310165       0.92198793039791      -0.74575624123111
H         2.99539111217278       0.11622597449101      -2.03270538601943
H         0.90855790615826      -0.42785601255287      -1.54546879017538
H         1.12752706233662       1.23950781592674      -0.95088613649168
H         4.03174581274382      -3.08801818276206       0.23798190247748
H         4.39016534659194      -1.59538341300900       1.17081670192633
H         5.40615356381340      -0.96048117828041      -0.84758381077545
H         4.23489659577417      -1.88118787176149      -1.85701050049313
H         1.92340652650074       0.36953554085788       1.98888748022848
H         3.69670413704479       0.45851076813030       1.47262633076921
H         2.54561062947182       1.69018768578832       0.91029063534903
H        -0.24806910190527      -1.01289430329393       0.64730974189663
H        -0.11899345359175       0.69028602311253       1.13518380813954
H        -1.57554673248175      -0.33861776251870      -1.36944524036061
H        -1.43991756827204       1.36321535991589      -0.89722711404468
H        -2.64283432374787       0.86361118093378       1.25211978391068
H        -2.77153311926524      -0.83982081607588       0.78773170386456
H        -3.98907120446757       1.51496005789942      -0.76757221803223
H        -4.11907086868907      -0.18764957766382      -1.23109860329074
H        -5.20682542520451       1.02196382975764       1.39411290327901
H        -6.18720270640715       0.56522433771143      -0.01988492031146
H        -5.34381128253627      -0.68805164388954       0.92189154369856
C         7.17235398254879       2.23577111845962       1.23025156488310
C         5.83701280116073       1.58545385730838       0.84767451446953
O         5.58036631909361       0.46292001112268       1.39356116590816
O         5.11098782420273       2.20341046895574       0.00846893214020
H         7.34309370343198       2.15305761434746       2.31343761667166
H         7.98813325488349       1.68726414673479       0.73252108571900
H         7.21004825225557       3.28674644152936       0.91353707472672
