27
C7H13BF4N2 optimized with ADF in AMS.
N         0.24353021446217      -0.88328266587536      -0.30387474074581
N        -1.70722980387349       0.05132815103251      -0.45545364103471
C         1.65804484942577      -1.17237804027545      -0.59144140075285
C         2.61682247770161      -0.41362458410591       0.32289814316591
C        -0.42081242306971       0.16310580924510      -0.80821265886937
C        -0.64078337489994      -1.68535667444470       0.38872852495064
C        -1.86973056758956      -1.09754483936435       0.29603985355540
C         2.53741948582040       1.10397795000674       0.17094387061533
C        -2.75927738176407       0.96464205880558      -0.89767640222938
H         1.80774156644798      -0.90066680811696      -1.64801263855240
H         1.77742783111790      -2.26084853601855      -0.48923248158816
H         2.44457593134536      -0.71223102210030       1.37310231004018
H         3.63081289318159      -0.76125145954416       0.05647588282858
H         0.01080285478045       0.92678398307089      -1.45048241304862
H        -0.32923442713069      -2.60947522462287       0.85959461087076
H        -2.83653859674127      -1.40268575390263       0.67664636569698
H         1.57666374253351       1.49647306550675       0.54050834790667
H         2.64183444199695       1.39808138653499      -0.88472435360490
H         3.33280107374159       1.59249829621842       0.75355298075625
H        -2.45535303265671       1.36622059216468      -1.87412249734373
H        -3.68821760499173       0.39314694488095      -1.00712723155767
H        -2.89483415439267       1.76797066163029      -0.16121120577036
B         0.20923205159881       0.54430814228512      -3.78043176641453
F        -0.91766114892928       1.37735955475122      -3.44218066707121
F         1.32592107264889       1.01112046159022      -2.97757585305095
F         0.50684779279671       0.61017861140106      -5.13297977845609
F        -0.08254016896057      -0.79064567165327      -3.35696416909595
