47
C15H28N2O2 optimized with ForceField in AMS.
N         1.37838004211303       2.27065589200990       0.02713004429683
N        -0.82564067545698       2.44380207605636      -0.21550024588051
C         2.75187293099233       1.84236798084420      -0.22928047836297
C        -2.16434697287270       2.25803726233594      -0.77346492418179
C         3.00948497865349       0.44549346945819       0.35503921063078
C        -2.41851478803725       0.78110103910309      -1.11257083964467
C         2.08783492221957      -0.61630622723718      -0.26570312609186
C        -2.37021371390832      -0.11191141789461       0.13635032664941
C         0.34407361242150       2.18314917578255      -0.83115620092187
C         0.84767191531318       2.60938829642957       1.21978390650925
C        -0.51877316690800       2.72386134191324       1.06762500316937
C         2.42769216553233      -2.01804021602797       0.24887070055226
C        -2.57887745186743      -1.58509508864380      -0.22920396797358
C         1.47379048582520      -3.06007426636385      -0.32833775859879
C        -2.51223501546363      -2.47289127640080       1.01066050299106
H         3.45547372085617       2.57190694310451       0.22642766105719
H         2.94720884213807       1.82741353908975      -1.32432848273447
H        -2.26219346696765       2.87016161652854      -1.69576858303430
H        -2.93321283811516       2.60977180749040      -0.05092318462108
H         2.86031755411025       0.47224638190726       1.45663840786721
H         4.06948694707635       0.17388106814048       0.15867096598563
H        -3.42050710842800       0.69363427818057      -1.58613190659766
H        -1.66225045805411       0.43592364953667      -1.85108296578092
H         2.19065117088977      -0.59522849574890      -1.37308059937212
H         1.03218070719242      -0.38875008834731      -0.00420483241873
H        -3.16116394905760       0.20974108363483       0.84889042531201
H        -1.38326470237441      -0.00580168076861       0.63587270511821
H         0.43233139525854       1.85321043678401      -1.85941075529038
H         1.40311813134029       2.70256203208848       2.14414413487540
H        -1.23893407511151       2.92215385386620       1.85100916472047
H         2.34990705746345      -2.03832524738080       1.35700284251624
H         3.46868224888107      -2.28075991251367      -0.03938342780631
H        -3.57066219583869      -1.71532013026612      -0.71436218630709
H        -1.79145587583270      -1.90771183541772      -0.94493744312205
H         1.52657030509252      -3.06093385143217      -1.43793328498686
H         0.43185287515617      -2.84344422994540      -0.01276626659300
H         1.75359419343487      -4.06802492864184       0.04360625707142
H        -3.32956092915286      -2.21052843387535       1.71564532773246
H        -1.53446432474623      -2.35011907527497       1.52389462290423
H        -2.62529142735407      -3.53674424133876       0.71345813792913
C         4.68082665956261      -3.93097685436748       5.10396225202271
C         3.71167285721144      -3.41863067082455       4.08590440932969
O         2.84241440715812      -4.15433170733794       3.64741148604508
O         3.78517759990975      -2.26540970777815       3.69334417495261
H         4.13460564526683      -4.21778845646761       6.02718872318581
H         5.21134401695285      -4.81984709203311       4.70178998111772
H         5.43039279302512      -3.15096201865608       5.35828789957885
