46
C14H29NO2 optimized with ADF in AMS.
N        -0.10631356156277       0.34531764878291      -0.34646840415289
C        -1.30742350620059      -0.33827385443838      -0.96188888009416
C        -0.51204088977721       1.06614756061304       0.93453751914192
C         0.99958629143639      -0.64024198394214      -0.00332781301536
C         0.37595469576567       1.37815523757675      -1.34994766020840
C        -2.01427323700313      -1.28098189453696      -0.00288454099297
C        -1.26286074652197       0.16594429340890       1.90224376596565
C        -2.45618227684818      -0.53662014174909       1.25743680203215
C         1.60371305408371      -1.39615556895230      -1.17113099833775
C         1.60914623203295       2.16334814470964      -0.94738322987127
C         2.75273675842611      -2.25984545812870      -0.63480926762180
C         1.94010259970272       3.18274509799538      -2.03532282318901
C         3.48575406871634      -3.00687912645232      -1.74348589355698
H        -0.95618567992431      -0.85483927634215      -1.86636361213128
H        -1.99086472700881       0.47047190542187      -1.26881983056700
H        -1.14732400904309       1.90820307598194       0.61177759126569
H         0.43673375371358       1.42211637333601       1.39873828339327
H         0.57346084279303      -1.33930245989453       0.72707017329965
H         1.80725646793979      -0.05883221889086       0.49627219889912
H        -0.48409453186147       2.05234082089637      -1.50606719926941
H         0.54527322870102       0.83315936826003      -2.29274760953354
H        -1.35533036536717      -2.12590926253505       0.25760788826530
H        -2.88016107411738      -1.70914876617983      -0.53516908327508
H        -1.58868080391322       0.80611704219926       2.73839336971224
H        -0.56940277898865      -0.56788478314709       2.34386902574811
H        -3.22106049132502       0.21252469930303       0.98094729374640
H        -2.92894611235030      -1.23237807667852       1.96846029768973
H         2.02698288781681      -0.69200508758327      -1.90785220370786
H         0.87013000880267      -2.03482344102642      -1.69832061996496
H         1.44621475070129       2.67389014745271       0.01463801866573
H         2.46583007292605       1.49417780850968      -0.76232666872517
H         2.35249958904150      -2.98180060305075       0.10078164683455
H         3.44549339838530      -1.59680763310876      -0.08829536191326
H         2.84964051721610       3.73596402059654      -1.76219853733092
H         2.12201546431497       2.69660336135419      -3.00830834891131
H         1.12617161571918       3.91426117249681      -2.17149981980542
H         3.91445478506237      -2.30089509430236      -2.47340956308643
H         2.81268676699089      -3.68964133494658      -2.28821253698237
H         4.31216216972641      -3.60435509401088      -1.33140948683847
C         4.42191006495227       1.54932931914941       2.90158547647972
C         3.26248498665654       1.21395810270297       1.95474736618140
O         2.10432523462095       1.62319663299515       2.27987233269531
O         3.56803746769462       0.54497013942265       0.91767225143661
H         4.09707480976779       2.19729156313455       3.72615915302787
H         4.83615838184954       0.61448488442287       3.31124685509849
H         5.23170463015668       2.03525442917430       2.33635188470416
