50
C14H28F3NO3S optimized with ADF in AMS.
N         0.03183412932533       0.66086615070059      -0.63136152553665
C        -0.69293346511502       0.46357477269274      -1.95778908550936
C        -0.46967259161800       1.94858253032438       0.01846452701479
C         1.50673888775910       0.82107581993462      -0.97301547712416
C        -0.19565302545275      -0.48934864535867       0.32445716303070
C        -2.20413592944788       0.47749761514132      -1.81534482434267
C        -1.98356880038742       2.00907157076215       0.15026212353497
C        -2.67019794000689       1.79590870985043      -1.19748978109854
C         2.44051346679926       1.01007507987028       0.20710537928220
C         0.25763432128547      -1.85647792154452      -0.16006379132001
C         3.80470194321925       1.48308290563173      -0.30528682246400
C        -0.02589729033121      -2.92381952775460       0.90183871972256
C         4.80006468526249       1.68987951062730       0.83046031826428
C         0.41918143820341      -4.31379840500257       0.45534953274324
H        -0.31560269773286      -0.47646495076834      -2.38385091241511
H        -0.34977017506667       1.28992309698736      -2.60464712117274
H        -0.10061402586781       2.77212143393789      -0.61035957031438
H         0.02085716259970       2.01427019439386       0.99883546558758
H         1.55662462304193       1.69637112125477      -1.63674676992371
H         1.78498241066026      -0.06378205626979      -1.56413085326486
H        -1.27006213058034      -0.50704882041301       0.54740668879080
H         0.32997557354428      -0.21710068955950       1.25186823552269
H        -2.55964838838029      -0.38655901839784      -1.22416207689635
H        -2.62079327290429       0.35397795209146      -2.82867018604177
H        -2.21459982747247       3.01259292543957       0.54533732771126
H        -2.35031108068492       1.28639916887748       0.90142871312755
H        -2.39182803288545       2.62729444510255      -1.86945066582972
H        -3.76521552378925       1.80294938097098      -1.07619928061857
H         2.55910730464864       0.07943448986081       0.79085465545913
H         2.05482314550456       1.78686761308915       0.88713411628734
H         1.33721954380456      -1.85326120587834      -0.38325686266952
H        -0.26879520758983      -2.13484868744489      -1.08782174529223
H         3.65103539626144       2.42763413127033      -0.85512845215375
H         4.20328705890539       0.75079347936432      -1.03096755920170
H        -1.10716010994822      -2.93673329289837       1.12975302444958
H         0.48894734513576      -2.65290080988385       1.84114753887040
H         4.99687151126929       0.74969359556496       1.37162256715742
H         4.41378276609351       2.42394179390224       1.55612870525254
H         5.75969982569218       2.06946267716455       0.45013357430624
H         1.50139664146298      -4.33561878388173       0.24933609297245
H        -0.10430768710846      -4.62077210634367      -0.46403847131848
H         0.20879451559372      -5.06539461459647       1.22993698420845
S         0.63394727922258       3.97349421716603      -2.87215530328552
O         1.52571483443836       4.08004303859198      -1.69529281879713
O        -0.78216425288846       4.28434834192644      -2.60486739750298
O         0.85854065010503       2.75460559556989      -3.68308077863200
C         1.19798261554346       5.36957190645304      -3.99327275611432
F         2.51171042129938       5.23599434022264      -4.31970272020056
F         1.03821771470252       6.57201752533325      -3.38091394812834
F         0.47983161087463       5.38679143602506      -5.14690489312702
