32
C10H14F3NO3S optimized with ADF in AMS.
N         0.43537206165207       0.01737809717648       0.92245738217637
C        -1.76069579147285       0.16764564334788      -0.26461143716887
C        -0.99403935608786       0.40568335184706       1.02923769459266
C        -3.26074001148382       0.35937254609962      -0.04034685310851
C        -4.06794003636297       0.12073650883101      -1.31321808456451
C         1.41781544145421       0.93008636306554       1.11127984882304
C         0.71854210653560      -1.29059898995389       0.72825449843076
C         2.74184420456816       0.55127669604314       1.07848807499746
C         2.04126073258528      -1.71274525591135       0.68168795756474
C         3.06087522301462      -0.79461898116787       0.86277098649766
H        -1.59365571833374      -0.86941858047115      -0.59738530377903
H        -1.38715331614364       0.84432140554390      -1.05474209461558
H        -1.40728892619189      -0.21004094424469       1.84270712416126
H        -1.01990479546496       1.46386535152546       1.32537888342620
H        -3.58091787450424      -0.35181595761251       0.74124814653083
H        -3.45737496804377       1.37738140958302       0.34276600056875
H        -5.14613204304981       0.22182938296744      -1.12139459270740
H        -3.79531294146633       0.83974264595357      -2.10278998940468
H        -3.89052457467222      -0.89482840617029      -1.70103765619563
H         1.09509912096535       1.95349952736332       1.29055481624931
H        -0.14268300382014      -1.94767533007945       0.58507171684103
H         3.51560512921245       1.30308285435502       1.22947325729261
H         2.23533834564744      -2.77626908242860       0.54511336613013
H         4.10381003968435      -1.11574166184843       0.84820130559794
S        -1.20759657530710      -3.04169192105192       2.68227657980420
O        -2.11718077764878      -3.24536556597546       3.80402347665536
O        -0.00279194762968      -2.21205483296372       2.96274652163643
O        -1.82639054734843      -2.71297286059655       1.37224256878959
C        -0.46829582737080      -4.73635405216141       2.35617130912001
F        -1.41939162420766      -5.62729007903170       1.98763217312282
F         0.17070045473366      -5.22060662418378       3.44827656271548
F         0.45103225595749      -4.66826045564969       1.33551530111957
