53
C15H30F3NO3S optimized with ADF in AMS.
N        -0.43250414421732       1.74200184497050      -0.07052780347293
C         0.20989898549961       2.64546881241551       0.98106278323626
C        -1.31191809966597       2.69104228214776      -0.89932642940243
C         0.62661176341313       1.12413567555861      -0.96117124356441
C        -1.28228563325832       0.69988149819521       0.63054959157298
C        -0.83690154197004       3.69775332091007       1.28671597805819
C        -1.46478317158335       3.98321791378314      -0.08517572550909
C         1.62861794792549       0.24967366863846      -0.23190201666515
C        -1.91386164111914      -0.35263662296668      -0.26938349467005
C         2.81209725116931      -0.04375721815855      -1.15688737040127
C        -2.91281500773209      -1.21177412221003       0.51453233405874
C         3.87356888795005      -0.91342506864000      -0.48861687819271
C        -3.55346673576754      -2.30500511495573      -0.34213378984505
C         5.09231801938245      -1.13160996984001      -1.38039598826845
C        -4.55794286399173      -3.15334627316046       0.43461694773575
H         1.09831062008395       3.09486731537279       0.51161845532857
H         0.51447816214984       2.03240348987003       1.83836949261094
H        -2.25767963263391       2.17380832982469      -1.10182273635217
H        -0.77483949636581       2.88621129721788      -1.83751902306394
H         1.14187413493671       1.97886899787935      -1.42627622048450
H         0.09459343115323       0.57018014209693      -1.74915454766396
H        -2.05934136207155       1.26193133611179       1.17116821381521
H        -0.63269389535470       0.21859199607850       1.37639388004529
H        -0.35321120845975       4.59561245197977       1.69815535385642
H        -1.57730225155957       3.33291056548780       2.01736807591314
H        -2.51544809887792       4.29606644826106      -0.00747879750051
H        -0.88692929043675       4.77693478497938      -0.58176033811954
H         1.17344308682952      -0.69510991520000       0.11711457792635
H         2.01787160035073       0.78192750196522       0.65136662603357
H        -1.13419845911827      -1.00522910485542      -0.69560290173572
H        -2.43798635770773       0.11775074722186      -1.11853235045813
H         3.25619089878265       0.92202066327785      -1.45597510135843
H         2.45644511775262      -0.53671526601566      -2.08095742454414
H        -3.70760472917090      -0.56535357775847       0.93120382590046
H        -2.40597471872799      -1.67889501751731       1.37955856494327
H         3.43231371651695      -1.88822997393061      -0.20955020093735
H         4.18910941874416      -0.42953031139363       0.45355818445915
H        -2.76177546479911      -2.95577441799524      -0.75562337223086
H        -4.05647652640606      -1.83897165728278      -1.20900414965742
H         5.84646508228244      -1.75800303026008      -0.88040571536925
H         4.80855782236346      -1.62744886360942      -2.32253287700628
H         5.56274699667593      -0.16918340346408      -1.63620821197649
H        -5.00600413277306      -3.92550811620361      -0.20913839713955
H        -4.07529964814016      -3.66258566255064       1.28423790736020
H        -5.37629387731264      -2.53381474830887       0.83501782448839
S         2.08395530408687       4.63138074012871      -1.42691269417364
O         1.52071257755503       5.55690906733021      -0.42782504497945
O         1.11416189380687       4.13920205932967      -2.43387275233422
O         2.95234870298312       3.56837966496778      -0.87207669265980
C         3.25842253445958       5.70668588448277      -2.42359972370604
F         4.23811358998706       6.21249474681071      -1.62970749120593
F         2.59726158735326       6.74935885228099      -2.99197784842501
F         3.85167813732736       4.99548569070228      -3.42001976256901
