33
C9H17BF4N2 optimized with ADF in AMS.
N         0.37508731150866      -1.73233784228057      -0.37746687992989
N        -1.36362189865032      -0.80444320094723       0.52899832280045
C         1.68683875923401      -2.38836140258625      -0.51093701439359
C         2.68562746922702      -1.49779111298984      -1.24342450061193
C         2.94186029230862      -0.17609452515068      -0.52627480961920
C        -0.23665361080825      -1.47893980587716       0.78571036727515
C        -0.37596077780933      -1.19610272017093      -1.40425379378219
C        -1.46733098973072      -0.60869099748697      -0.83352531512651
C        -2.23406741112842      -0.21089074957370       1.55820629585469
C         3.97666700923136       0.68426008541996      -1.24098660279216
C        -2.09436629275211       1.30246808209793       1.56951692480835
H         2.02969701549943      -2.57799475700700       0.51617970111386
H         1.52967064758055      -3.34536062950378      -1.03297881035251
H         2.34645244723369      -1.31972218593632      -2.28144052317027
H         3.62267935053498      -2.07758621829251      -1.32550924666553
H         1.99806464695189       0.38418758673041      -0.42317590113307
H         3.26162569930411      -0.38415511188743       0.50740065357926
H         0.14491317386400      -1.71667276100342       1.77454423638844
H        -0.07416907585363      -1.27185650042162      -2.44026145734653
H        -3.26273078893668      -0.54491637215989       1.35080252397952
H        -1.89807300824303      -0.62766619626038       2.51745371401479
H        -2.29659010920315      -0.07247492205812      -1.27733406692381
H         3.65225961414270       0.94226624327144      -2.26276211803588
H         4.94542001279653       0.16423716342083      -1.31668562639277
H         4.13991327331230       1.62293375991454      -0.69108778557712
H        -1.04171159700991       1.56355561007360       1.75070100692690
H        -2.70926659392721       1.71501009590946       2.38188921030210
H        -2.43049496611515       1.74891343126442       0.62162875163968
B         1.42780404280386      -0.07942296703605       3.00305036539583
F         1.07743691191091       0.74258044981230       1.88053251890623
F         2.19953779745412       0.62474137115565       3.91789696430258
F         2.13093991094317      -1.23801984541953       2.50577597045336
F         0.20065652072598      -0.55857011062116       3.58715416971177
