28
C8H14F3NO2 optimized with ForceField in AMS.
N         0.58657385493597      -0.00430369131993       0.00884353227652
C        -0.31542054262588       1.05491591164435      -0.51889798563578
C        -0.29540402045904      -1.07881841200472       0.54145144495838
C        -1.72722019666773       0.73068689547149      -0.06578797536459
C        -1.71846514432912      -0.76558744029506       0.11203515818203
C         1.44696425764659       0.53951195692286       1.08571316000277
C         1.45010135252717      -0.53171669439418      -1.07403591370038
H        -0.31860484894347       1.07636042882863      -1.63218291824480
H        -0.03196627451900       2.07828286104117      -0.18124034336013
H        -0.27787372756239      -1.11817645238158       1.65593695888060
H        -0.00679010700522      -2.09491514059896       0.18637732242985
H        -2.48707284048003       1.05025616075590      -0.81245568604361
H        -1.93275624915774       1.22414703013872       0.90972723560360
H        -2.46422335559957      -1.09185977840611       0.86956863497460
H        -1.93545614085557      -1.25928922430375      -0.86109147769295
H         2.12708899151348       1.32816192308067       0.69193477917817
H         0.83057394074225       0.99185511194087       1.89478900950270
H         2.07176029899315      -0.26414033036379       1.53623015146710
H         0.83694387383446      -0.99337156921106      -1.88047709064173
H         2.05791178147670       0.28345663626044      -1.52755650662308
H         2.14552465541767      -1.30936699635993      -0.68567991353752
C         1.91288265632839       3.92365822365755      -2.99206123480805
O         1.79989818054422       3.53016435359152      -1.84196152357884
O         2.87182408821637       4.61193403501649      -3.30247765804054
C         0.88495676247384       3.56810712913718      -4.02403468850803
F         0.33699790900594       4.72415519539033      -4.54728112938230
F        -0.12562684797236       2.80717217657034      -3.46598236543755
F         1.48268601752095       2.84639351949056      -5.04024826965644
