49
C15H32ClN optimized with ForceField in AMS.
N        -1.09160121743408       0.82844242397216      -0.16617418911900
C        -1.59502900186944       1.85160578756187       0.80758225162737
C        -2.05368460788462       0.74517924163019      -1.31316625948688
C         0.21141600916377       1.31156212578997      -0.73919637033271
C        -0.93441748754660      -0.49493395303165       0.53285815621824
C        -3.04455481965538       1.60927369198807       1.27912934279737
C        -3.50198260316485       0.43982500406250      -0.89714300239646
C        -4.00191109967456       1.48306648265963       0.09695479904403
C         1.40728309986452       1.37712113868594       0.24437687669300
C        -0.33685642652818      -1.64087010747950      -0.32026941799749
C         2.65432487579927       1.91549783451410      -0.47102926044781
C        -0.20973803968692      -2.92151642275076       0.51573169184586
C         3.86949384848152       1.94810966390188       0.46260362899137
C         0.38346372207264      -4.06790326986667      -0.31117621319492
C         5.10556790136749       2.46956822195688      -0.26615266691591
C         0.49850517206523      -5.34259679337959       0.51983364659275
H        -1.55910496634477       2.87046917253057       0.35672681252625
H        -0.95814821014004       1.88279294330997       1.71754928862264
H        -1.73134599865624      -0.00478738770415      -2.06463389715021
H        -2.07484164359857       1.71510577514239      -1.86420936183572
H         0.08000324027247       2.33140055827468      -1.17069071617623
H         0.50978514906163       0.67672580053078      -1.60150859066774
H        -1.90709260632189      -0.85785409959672       0.91745084590243
H        -0.30998310281870      -0.37298560373986       1.44521629383560
H        -3.36650992717259       2.46776042511113       1.90720472520151
H        -3.10889808563364       0.70621457986885       1.92089111111961
H        -3.59299007225086      -0.58110405692238      -0.47284842497789
H        -4.14863791387980       0.46905064702404      -1.80061190819721
H        -4.09251765844056       2.46770047190901      -0.41263046810674
H        -5.00971196501898       1.19221781122659       0.46371375778421
H         1.17553964614993       2.04771295072757       1.09667920271313
H         1.64683321078853       0.36773242003784       0.63710769699023
H        -0.99325028051154      -1.86228499353331      -1.18581029541753
H         0.67124120814937      -1.37093318395285      -0.69444871847425
H         2.45003983521186       2.94382143861540      -0.84289070254189
H         2.88630590358711       1.26598857962628      -1.34287626592553
H         0.44574018135083      -2.72540982952608       1.39279760541486
H        -1.21553755363228      -3.21998328082170       0.88607530288727
H         4.08151385763040       0.92387180208203       0.83991792063799
H         3.65775849683671       2.60826636412580       1.33145202579298
H         1.39460177902006      -3.78338846107002      -0.67544610770810
H        -0.26454179105125      -4.27052100426711      -1.19159900398544
H         5.97085354495294       2.48306808394169       0.42940350900622
H         5.35273493169105       1.81172106299210      -1.12674838467857
H         4.92992825172925       3.50280944616529      -0.63466046032498
H         0.93322708434187      -6.15365953593892      -0.10151133662051
H         1.15930500114671      -5.17371133689572       1.39668644876222
H        -0.50423022842773      -5.66478977933989       0.87319530293039
Cl        2.19611810150890      -0.33732207084831      -3.82720176915783
