58
C16H22F18NP optimized with ForceField in AMS.
N        -1.45664131253238       0.39817416899166      -0.07935192418350
C        -1.77506744514607      -0.87764904341464      -0.78641318684135
C        -2.54334550040851       0.58151839920285       0.92370952041170
C        -0.14200137107056       0.32199287899025       0.63000746256972
C        -3.02275958378445      -1.47601579890501      -0.15393085839829
C        -3.69763762478145      -0.31286751513978       0.52067610817156
C        -1.48071328614906       1.54075188894910      -1.03002931756167
C         1.09353893138408       0.28713827348231      -0.30069867494451
C         2.35522589419635      -0.09564111301294       0.48397340003315
C         3.59696748824325      -0.07209114330085      -0.41462437256296
C         4.84830207625324      -0.46236924396948       0.36681533767467
H        -0.95434148356254      -1.62649057166440      -0.72679025662541
H        -1.97779936049123      -0.71757526358222      -1.87136150981867
H        -2.88528386933802       1.63882219509755       1.01245623074144
H        -2.22374156799082       0.26813815830133       1.94561181769523
H        -0.12523599986446      -0.58429362881932       1.27953988097509
H        -0.02722158706909       1.19891796072815       1.30861345908377
H        -2.73067521323058      -2.23095775088255       0.60994267653131
H        -3.68635897396560      -1.95138595799957      -0.90705072763642
H        -4.35348032188503       0.21680324465455      -0.20506739857496
H        -4.29549729938222      -0.63919173545295       1.39964223794883
H        -0.80040606881970       1.36613750334338      -1.89181828654855
H        -2.50180969000084       1.68955377948140      -1.44820705878018
H        -1.17340823629221       2.48402562831370      -0.52541487386374
H         0.94755030179154      -0.44060889844197      -1.12612096519956
H         1.24689967862205       1.29403442008032      -0.74599183741846
H         2.22842410222738      -1.11719540119860       0.90596858811143
H         2.49667593229918       0.61900557418774       1.32479103701007
H         3.73785480449002       0.94860176112024      -0.83255026493701
H         3.46313618317285      -0.78336860349433      -1.25860118745267
H         5.01659506662722       0.24669331135622       1.20519306691883
H         5.73133553664336      -0.43322604061488      -0.30558400299221
H         4.74457654490098      -1.49147801151986       0.77224740869475
P        -7.61088642201513      -3.06421878571018      -4.15674914806745
F        -7.89348011371846      -3.30788919456316      -5.83756965164929
F        -7.99912339619085      -1.45605193202306      -3.67192907802273
F        -7.45781365945662      -4.76914263267526      -4.32787037625126
C        -9.54996679918819      -3.07221015884985      -4.21341462419884
C        -6.08280441689976      -2.32199002970928      -5.08580190709416
C        -6.87136953136764      -3.56699393112478      -2.44240243335639
C       -10.24774909218006      -4.34852950146051      -4.75838201623858
C        -5.03167134704757      -1.58201257226864      -4.23213488385508
C        -7.82060999027294      -4.25881039625920      -1.44516896166575
F        -9.98062924838146      -2.02142093609390      -5.01418505451571
F       -10.05247514461642      -2.83773894726305      -2.94911756059733
F        -6.51639901342682      -1.39878539934941      -6.03321545804592
F        -5.41874889401470      -3.34562416929005      -5.74811952532993
F        -6.42194740480878      -2.42682104459466      -1.80141378850480
F        -5.77221497212384      -4.39469112314796      -2.62733729287779
F       -11.61453361767356      -4.21228964586173      -4.59013054411357
F        -9.85703631388163      -5.48790388221141      -4.08839686664844
F       -10.01052217919987      -4.52070967732044      -6.11021411074858
F        -4.12068875814274      -0.97344530698718      -5.07827772786229
F        -5.60930217427290      -0.59418923425180      -3.45692105806574
F        -4.32625784755766      -2.45711258797683      -3.43122617285065
F        -8.73535819060369      -3.35842099585663      -0.93341718180992
F        -7.07738628224678      -4.74162015685031      -0.38268056244265
F        -8.48183416309863      -5.32489113046811      -2.01290164391859
