36
C10H17F3N2O3S optimized with ForceField in AMS.
N        -0.01805063192801      -1.33617937789355       0.33983220594086
N        -2.03223819507498      -0.39976010485257       0.22326913189992
C         1.33684528338852      -1.64596509080235       0.79419127662102
C         2.38251266886951      -0.86600720403717      -0.01150059539220
C         2.19569881167806       0.65113117106668       0.12730023433397
C        -0.91884640618219      -0.55334403074111       0.96602740620410
C        -0.58274388931023      -1.69492949824952      -0.83089148707945
C        -1.83198272812735      -1.11280416996992      -0.90382730436363
C        -3.19132815671676       0.42969455003643       0.54432979889573
C         3.28402540718113       1.41069862660008      -0.62297073281498
C        -3.14656011896094       1.73402294705162      -0.24410885845068
H         1.44359520517859      -1.40158774516778       1.87405338594088
H         1.52454418179556      -2.73317582528396       0.67446092860614
H         2.31851648643477      -1.15741922931384      -1.08265157026513
H         3.39198185790606      -1.14729933925995       0.36131431392881
H         1.20936879455870       0.95052862874946      -0.28834170159250
H         2.22774682893544       0.93729146043678       1.20119777791140
H        -0.74772315313996      -0.06663963167972       1.91836741871120
H        -0.11406936986554      -2.31444347315309      -1.58436921539837
H        -4.12513185261912      -0.12373142855399       0.30605210425690
H        -3.19930642816450       0.66634870931532       1.63075349541813
H        -2.53209274190998      -1.18894100494913      -1.72552897007960
H         3.25777124986360       1.15206560861713      -1.70309634241159
H         4.28376240546180       1.16163856809612      -0.20819427137727
H         3.11482079900485       2.50283421670248      -0.51479212142521
H        -2.22293171755503       2.29807107531079       0.00711331483495
H        -4.02804219822660       2.35777714718000       0.01543719934953
H        -3.16240927375669       1.52719594742740      -1.33504747078387
S        -0.84500751730312      -6.14952966015323       3.41670909374350
O        -1.18226553879066      -4.97314137066625       4.34446375780046
O        -2.06817536867711      -6.22419664653107       2.49119923885411
O        -1.02160794415888      -7.37342027205379       4.32717574553555
C         0.75679976634853      -6.03549159417915       2.57345980743396
F         1.76968784269176      -5.97478154419809       3.51147919489777
F         0.78221540586046      -4.89671406211228       1.79405376212850
F         0.93686714601034      -7.14573725778877       1.77089287078711
