34
C8H15F2N3O4S2 optimized with ADF in AMS.
N        -1.67206701315827      -0.64199589254513       0.20166124313624
N         0.36615125064832      -0.80571568415741       0.92436708768857
C        -3.11192864421895      -0.35541900531764       0.18265683925917
C        -3.53591460778527       0.32917265438960      -1.10962954272456
C        -0.82599392196552      -0.24336135044373       1.15571256456708
C        -1.00868590684345      -1.49274496699849      -0.65568169235669
C         1.55346107033243      -0.66374007138021       1.78011877036415
C         0.27335994911481      -1.59391570163028      -0.20342113978626
C        -2.84241897730736       1.66916966249694      -1.33204903598320
C         2.73274360766359      -0.09379366828859       1.01129308303615
H        -3.31291246984580       0.27949464994794       1.05708738612562
H        -3.62442789297186      -1.31505218391535       0.35056190678149
H        -3.35366306458099      -0.34449164784926      -1.96550198915128
H        -4.62960096316389       0.46457967517840      -1.05637099772126
H        -1.07747046188099       0.35430622174873       2.02226238324546
H        -1.51030975530349      -1.98781513432059      -1.47642693885154
H         1.25622937162117      -0.02006723564291       2.61734677397315
H         1.76062129135450      -1.65998932836158       2.19801371714772
H         1.10831872900040      -2.17957160935890      -0.56422240545429
H        -1.74926593214836       1.54811379110779      -1.39448215035716
H        -3.06069347058885       2.36812875372419      -0.50841384246078
H        -3.18014029992963       2.13747298310264      -2.26852146523829
H         3.04347092990421      -0.75542365939527       0.18914032238331
H         3.59031129754556       0.01677893289705       1.69075457844967
H         2.49072635275119       0.89438428984934       0.59257769434190
N        -1.96271166398126      -3.01215715070038       4.19377663454764
S        -1.60780781874633      -3.69820703055835       2.79239571565039
S        -1.90482732057657      -1.43558292167695       4.41402618427882
F         0.03858611977367      -3.40567094098203       2.61353224799783
F        -3.09187229182025      -0.83121497979451       3.38292142716098
O        -1.69309814919806      -5.13163698941328       2.94434449655554
O        -2.16849467936302      -3.04553333721983       1.61581741427554
O        -0.70407974018754      -0.76660704316024       3.91126816257180
O        -2.39113234364416      -1.12837723913170       5.73788050114711
