38
C12H19F3N2O2 optimized with ADF in AMS.
N         0.31863380731074      -1.21332221973932      -0.37445228776245
N        -1.80575930390649      -0.80699715729946      -0.17347099825238
C         1.76301818170845      -1.20779865761964      -0.11748320168375
C         2.38411168927669       0.13605592684722      -0.49094703921942
C        -3.09499583552856      -0.38385296801280       0.39122851533189
C        -0.63111843758531      -0.79637542026242       0.47292669006889
C         2.08401371416129       1.24755274830619       0.51172499911619
C        -0.25995271160716      -1.44946643118173      -1.60128163173084
C        -1.59187331863165      -1.18257675460184      -1.47945238073513
C        -3.39895679886339       1.08262100615176       0.10492985971738
C         2.55626551199386       2.60458570683493      -0.00293351976263
C        -2.45263329745792       2.03801125642628       0.82415216827237
H         1.91053663795089      -1.44425186028764       0.94844590828823
H         2.18541704771321      -2.03650660358443      -0.70494639123180
H         1.99461195413088       0.43952593136953      -1.47768972142470
H         3.47515863718807      -0.00824271494229      -0.58373331245886
H        -3.04935824615684      -0.58580497939551       1.47381519055049
H        -3.85586669113250      -1.04968729206923      -0.04299584593446
H        -0.48191067139611      -0.52374831216529       1.50867636613644
H         0.99421358625140       1.30863406628083       0.66363242137590
H         2.55452217769481       1.00483025261722       1.48415238265904
H         0.32823015152926      -1.74005748069425      -2.46108843784222
H        -2.38317145675194      -1.16522820937856      -2.21571514485730
H        -3.33940993130950       1.24455662285199      -0.98537948900183
H        -4.44323367494041       1.25729519564289       0.41810961202692
H         1.97874343481384       2.86833216028472      -0.90176114168312
H         3.62856661897765       2.58462624707777      -0.25665114259399
H         2.39946874212381       3.39313077546839       0.74810180309369
H        -1.42204703865989       1.90837877089263       0.46187424457925
H        -2.48816039987259       1.89464070091898       1.91801324275091
H        -2.72648614967336       3.08119594248130       0.60843074723727
C        -1.11202006924384       1.92444462799694      -2.36347872927601
O        -0.21725750574374       1.55081441995136      -1.56398803359445
O        -2.11975667128515       1.32426017056060      -2.80849135127656
C        -0.99666836502732       3.42273725545217      -2.82218524251796
F        -1.44479043477117       3.64189823559331      -4.09130941139805
F         0.28022991048142       3.91433297870747      -2.76662742310673
F        -1.75776160916144       4.21945243841993      -1.98880193246021
