49
C13H16F18NP optimized with ADF in AMS.
N         0.00984863386444      -0.30333436947667      -0.01514911021949
C        -0.69622858858862      -1.34962545568585      -0.85974194536644
C        -1.01041429485660      -0.00397926283928       1.07234762358407
C        -2.14746502601687      -0.89317189147029      -0.91984139192471
C        -2.38128858110903      -0.10252224182392       0.39400538074453
C         1.28568480713124      -0.83916924003509       0.60382301896687
C         0.26845557266159       0.92850895339012      -0.81732909495525
C         2.33735155380920      -1.26093562352912      -0.39948521813422
H        -0.61176757087673      -2.29767410565315      -0.31889569920416
H        -0.19495965253719      -1.43232595393527      -1.83075214152464
H        -0.77487893990246       0.97559711740212       1.51071054558358
H        -0.88365575983847      -0.78701181881297       1.83030490995086
H        -2.79427258096256      -1.77837603653966      -0.99349993069508
H        -2.33807367731150      -0.26293035484018      -1.80156845517375
H        -2.80642631739057       0.89156666465289       0.19343116087875
H        -3.07510171692841      -0.63288488861740       1.06095947410757
H         1.65233925889364      -0.04490212629864       1.27417861778523
H         0.97219772595909      -1.69535744104544       1.21454930642366
H         0.89959936572044       0.67430577312629      -1.67588719892115
H        -0.68854990450579       1.33012949285154      -1.17026681162824
H         0.77230541190340       1.66746382247092      -0.18126897031819
H         3.17477001746846      -1.70067575620969       0.16249948061417
H         1.96648323849482      -2.04473095227125      -1.07241451900433
H         2.73629938057813      -0.42083506005027      -0.98500748293443
P        -1.50294376389764      -5.49090119656520       0.44671002910546
F        -3.12201143946907      -5.47941347585860       0.79723378262509
F        -1.15194260071427      -6.76402979396603       1.44862906133853
F        -1.76188861202568      -4.14792669181832      -0.55236798498268
C        -1.96064608249125      -6.82476983813636      -0.92528899681521
C        -1.32373919200522      -4.31511945359938       2.11257904676378
C         0.44763700046361      -5.28880960210523      -0.10207676910027
C        -2.63188175941979      -6.36802443024968      -2.25095473930370
C        -0.07584018107325      -4.33478648784034       3.09852854915628
C         0.98834423783172      -5.03927996429612      -1.55946295161077
F        -2.84704977820713      -7.72333853203463      -0.37822867376135
F        -0.84611226863531      -7.55682934784330      -1.27876991399640
F        -2.37320081815800      -4.64506197381649       2.92590810468981
F        -1.51993356986617      -2.96285114255792       1.78919505626880
F         1.22774271302767      -6.30339780308252       0.37813939873951
F         0.87628637808837      -4.10665244646096       0.53519521240811
F        -2.93043616676071      -7.45640312061577      -3.01388173696195
F        -1.81874280028743      -5.56796624724580      -2.98863064909001
F        -3.78353191602727      -5.69689710004129      -2.01421448386053
F        -0.49388767444915      -4.30655473513232       4.39143883549708
F         0.69750457276651      -5.42102035749428       2.94263508775126
F         0.71585779673777      -3.22216600148127       2.94207503620179
F         0.89336415414411      -6.09765971816185      -2.37536874822849
F         2.32130766433996      -4.72294404199692      -1.46778362162691
F         0.38401052072801      -3.97578850635918      -2.15964183924244
