37
C11H23NO2 optimized with ADF in AMS.
N         0.58206704063144       0.36574112652757      -0.50053341205720
C        -0.86148682221140       0.77998960293784      -0.70005284865929
C         0.63344670057732      -0.97697444032106       0.21668385740955
C         1.19111266567717       0.20867558280676      -1.88847959564440
C        -1.66874062112154       0.80002684677222       0.58879489299036
C        -0.15030918355120      -0.96284341837321       1.51599632325828
C        -1.60572431778743      -0.54928175603197       1.30410546056277
C         1.33502112135297       1.40386196519911       0.27639285073971
C         2.67624718769503      -0.13666807741932      -1.95795316731746
C         3.62289701562914       1.06003477643111      -2.05783986162322
H        -1.29274215010320       0.05022330962045      -1.40452891242145
H        -0.84427477766817       1.76696869045181      -1.18730015331358
H         1.70955612712858      -1.22183279699848       0.39330792228944
H         0.19222990171482      -1.70026556852167      -0.49032871899981
H         0.97883751719859       1.15773864881375      -2.41008634051386
H         0.58612355298568      -0.58074639678915      -2.36102037089636
H        -2.70663706965704       1.06134135976186       0.32140099950064
H        -1.30868082307612       1.60379497700714       1.25247101284357
H         0.34501180877448      -0.30370099860687       2.24874886899291
H        -0.08326274443125      -1.98010674043376       1.93544933458102
H        -2.14717374058676      -0.49768687972256       2.26199758367321
H        -2.11593367789927      -1.31158686971664       0.68596878656757
H         2.35868857850462       1.01646052744546       0.52769523665268
H         1.38012511944825       2.31476403334632      -0.33593350903985
H         0.79265151455531       1.61340034358706       1.20414212491104
H         2.97218814028964      -0.77477933980735      -1.10234343149500
H         2.78661790067142      -0.76166239936063      -2.86214801447921
H         4.62624787634424       0.71099805861717      -2.34526057001524
H         3.28760275702999       1.78123958290340      -2.82306384270913
H         3.73880264318151       1.56330451529639      -1.08901300233386
C         5.42099818920900      -1.14258040233284       2.04975967770576
C         4.18396516931346      -0.71346063275102       1.25434357221035
O         3.99172654618180       0.53393579205857       1.12380918113324
O         3.46842091066648      -1.64913648884709       0.77235913630687
H         5.76871697610455      -0.33107185868615       2.70333971520006
H         5.20953816623059      -2.04967424688093       2.63376405087465
H         6.22999474259729      -1.38776700578330       1.34312571641525
