54
C14H26F6N2O4S2 optimized with ForceField in AMS.
N        -1.89411607116486       0.13688819729762      -0.05327787920784
C        -2.11038380043746      -1.06996532224443      -0.90896646073601
C        -3.01553173437734       0.11450274524325       0.93651978693835
C        -0.58868800573135       0.03088766836393       0.67660884000319
C        -3.48939739708850      -1.62378424257183      -0.60634294250551
C        -3.72257029125601      -1.22250514487332       0.82299878606747
C        -1.97775648608386       1.36988781413811      -0.90197185401766
C         0.66497643076259       0.03786238895981      -0.23137519401151
C        -1.75093409011394       2.68857437898994      -0.14062533728617
C         1.93336396746944      -0.18526161968592       0.60246272996497
C         3.18572929272781      -0.20956494641014      -0.28127492083659
C         4.44950916075108      -0.37683901841590       0.56987596396216
C         5.70137935738010      -0.38960708083826      -0.30056404483687
H        -1.38220812214995      -1.88248894576323      -0.68234020838370
H        -2.01604489867554      -0.86015157920746      -1.99932706415140
H        -3.77746992907648       0.90092831811212       0.72941552554794
H        -2.68005543893570       0.27648682103569       1.98691239722389
H        -0.57761112525629      -0.90729767348970       1.27904120651147
H        -0.48911038964514       0.85650720412161       1.41545190154158
H        -3.53375687006918      -2.72735852873715      -0.73470878842424
H        -4.24534147688938      -1.13888071058745      -1.26329549419613
H        -4.80705020425719      -1.14264092061290       1.05492214925372
H        -3.24679424108070      -1.96152580847480       1.50554653682744
H        -1.24788675797330       1.32484847396380      -1.73933255585873
H        -2.97871255744015       1.42552807559037      -1.38892866545936
H         0.59496198209846      -0.75894846580877      -1.00095460756522
H         0.75937479742502       1.01529643151308      -0.74791086338832
H        -1.96966012484093       3.54085563040919      -0.81802165158067
H        -2.41678915110741       2.77403556803580       0.74180915723866
H        -0.69588229970266       2.78734175569908       0.18584554465931
H         1.85468141152937      -1.15150063340983       1.14777009791254
H         2.02696697161816       0.63416114389440       1.34902790261116
H         3.25180594052074       0.74091266717703      -0.85558047192095
H         3.11150196850648      -1.05355680764179      -1.00237184969503
H         4.52674218549587       0.46318243943586       1.29442130347163
H         4.39647750634338      -1.32976697615229       1.14020204547099
H         5.78005620413085       0.56366755691143      -0.86312002954878
H         6.60169541525978      -0.49951136956063       0.33996289572146
H         5.66645640056579      -1.23864124263819      -1.01613981447830
N         9.75145815110869       1.36044022772458      -1.45841427953918
S        10.85803550196635       2.39577637493160      -0.83456261515607
S         8.94257624976901       1.66226473083686      -2.85151263241978
C        10.05612201065564       3.48167467311292       0.32764925681975
C         9.74255927614570       0.80686729055434      -4.19192504635091
O        11.91734727968545       1.61072099757443      -0.11463847143627
O        11.49327279107318       3.21257893237177      -1.92543417715183
O         8.91426635834682       3.13680327500682      -3.14340802465696
O         7.53699855265232       1.14944771242086      -2.72824378983669
F        10.98701068962838       4.34940151548485       0.86580480196921
F         9.48681401380225       2.73423332086331       1.34093047249869
F         9.07116079931557       4.20750960405146      -0.31423468883349
F         9.05815942794136       1.05195819419218      -5.36688755262947
F         9.74433011455999      -0.55137389832200      -3.93733945624093
F        11.04451723021764       1.25161102112788      -4.31770804177497
