58
C16H22F18NP optimized with DFTB in AMS.
N         2.04488467425111      -1.44369411156323      -0.47505939637483
C         2.39725309455154      -2.44109357724737       0.58647104354244
C         0.67171048947148      -1.86022819087772      -0.90394364137758
C         2.01600948109881      -0.03890068089719       0.05292100648050
C         1.81475923685058      -3.76376567179079       0.10162696491899
C         0.68773038628046      -3.38777985652616      -0.87354253297562
C         2.97861022228403      -1.54709002233869      -1.62854208894031
C         3.37221408633578       0.46177733638969       0.54459284158049
C         3.21563416237753       1.81961355391838       1.23656900252828
C         4.57663559932916       2.32055537473186       1.73321780084455
C         4.44489048664541       3.65344567002226       2.46636735974168
H         1.93050766051807      -2.11320991182710       1.51719543846745
H         3.47501498476905      -2.47919553527258       0.71001380576422
H         0.45556271497311      -1.44100919106693      -1.88700183993911
H        -0.03864387881998      -1.46142924359156      -0.17620450720436
H         1.29253401437876      -0.02596149125816       0.87312986117817
H         1.63855334991751       0.59462794246517      -0.75505603374463
H         1.43873498759767      -4.34032702316708       0.94784130402336
H         2.58137651397902      -4.35669858470845      -0.40012259215675
H         0.88212912676199      -3.79337192652818      -1.86822763604337
H        -0.27996571231150      -3.76381667903947      -0.53749629959702
H         3.99015888240046      -1.34750585316105      -1.28848404731126
H         2.93075709399810      -2.55312165466857      -2.03648476016620
H         2.68586742331618      -0.82120803312532      -2.38515378379975
H         3.79733679240479      -0.25050376443031       1.25197625619937
H         4.06705131308834       0.56129632467383      -0.29210425278691
H         2.52768330537629       1.72051111017837       2.08343489048170
H         2.78483957411308       2.54428470661174       0.53682435898174
H         5.25122589051055       2.43751019332616       0.87926454680135
H         5.01226503332304       1.57467475706702       2.40458418270432
H         4.01396564269948       4.41192654183731       1.81086698754659
H         5.42704578509646       3.99376433416044       2.79347840324694
H         3.80388879110366       3.54704742074573       3.34256220922783
P         6.43955926990038      -2.88659015261685       0.88640973570510
F         5.37734568007141      -1.66544584390943       0.28136541724946
F         5.06576580637502      -3.71570074449977       1.44425929093486
F         7.77494340920096      -2.04487207344696       0.32027980177822
C         6.15436192280117      -3.64108599360561      -0.91984883948887
C         6.48933834811253      -1.75852875637629       2.49959955065177
C         7.52377108752232      -4.37512222335123       1.62059538401620
C         6.62983390074417      -2.81789723696363      -2.15073163355187
C         5.35311732949493      -1.92138899509865       3.54382986624803
C         9.03246710772702      -4.43980915016924       1.27170520787978
F         4.80948828765970      -3.77943220247570      -1.09827887954377
F         6.68914885987131      -4.85832895797762      -1.08533022348871
F         6.42279939177283      -0.46424816329367       2.12020115720868
F         7.65801692113223      -1.90173494694134       3.14162766738766
F         6.97856460873409      -5.54479047278556       1.24087345802217
F         7.42225965986366      -4.33546523673532       2.96331577143472
F         6.18327239843622      -3.40670247246514      -3.26760892228389
F         7.94774958441060      -2.74465066000133      -2.22694162740814
F         6.13367936622132      -1.57562533480117      -2.14928631466921
F         5.47617865044452      -1.01892486277674       4.51647086396124
F         4.15866367803909      -1.70238015286012       2.95702714803775
F         5.31730292494371      -3.12269542028283       4.09682525116893
F         9.57711582350880      -5.57128397736300       1.71646856467855
F         9.69081452778495      -3.42245025939159       1.81590350710100
F         9.20267785845697      -4.39277244645323      -0.04935527407198
