37
C11H23NO2 optimized with ForceField in AMS.
N        -0.40243612366405       0.16255935529336      -0.07542590797284
C        -0.95953109961078      -0.89003446140054      -0.98003715827297
C        -1.47108984955214       0.40401351716054       0.94232732241037
C        -2.42587913585534      -1.08298773849642      -0.64259092661558
C        -2.51476648328832      -0.68750056494482       0.80446831188097
C         0.83287699871990      -0.34313405468451       0.60784085190833
C        -0.14684906517929       1.41319684194019      -0.86102664913437
C         2.02808005863716      -0.60264047364337      -0.34116077926295
C         0.46053985865819       2.56753928973219      -0.04270471065734
C         3.17395136963105      -1.28830299681842       0.39691816081089
H        -0.46367431261949      -1.87731026136981      -0.83322236617174
H        -0.85142913998426      -0.64399781846942      -2.06132257762713
H        -1.99628365823898       1.37360505231851       0.77925618792601
H        -1.08667353551211       0.42918543610490       1.98764845267325
H        -2.75441210474911      -2.13377544766677      -0.79898159752208
H        -3.04949636073322      -0.39970287487328      -1.26085000452939
H        -3.53299517349098      -0.32577017657788       1.06700899972665
H        -2.24591122175100      -1.55202786227032       1.45095097904226
H         0.59670853732580      -1.29005891554106       1.14776961080529
H         1.16322718246513       0.37106050213222       1.39491719065334
H         0.52675471621821       1.20928088135795      -1.72216740805266
H        -1.09855503412132       1.77783757746720      -1.31229500864765
H         1.72785272393626      -1.24258508492868      -1.19654945772762
H         2.41487995674717       0.35511407824658      -0.74605796469621
H        -0.12117571755774       2.76774742344191       0.87984275686819
H         1.51373093557861       2.35334815888655       0.23078771356622
H         0.45875200559759       3.49099686725109      -0.65944136163099
H         3.51722254817079      -0.65348358282987       1.24108784197094
H         2.84727620947288      -2.27510264548911       0.78864159100759
H         4.02503815342870      -1.44668398845887      -0.29923115451219
C         6.86877111685500      -1.35636872503484       1.75149064420770
C         6.88145853966186      -2.85078622006644       1.81571209209747
O         6.59362827371448      -3.41805310234199       2.85734962199408
O         7.17884564377698      -3.50691743004188       0.83040135291804
H         5.85118277312935      -0.98265488809725       1.98702579173210
H         7.58658622927431      -0.94456163517928       2.49164168727932
H         7.15498186300871      -1.00440567050835       0.73706379035470
