36
C10H17F3N2O3S optimized with DFTB in AMS.
N        -0.09238358280582      -1.56822615375341       0.33372104202989
N        -2.06594605800384      -0.71724565460585       0.27459686575481
C         1.26079311358183      -1.89219874445194       0.77141935189552
C         2.28869468308670      -1.07333349151680      -0.01013563402099
C         2.16627130120713       0.42667810822620       0.27763549658574
C        -0.91710281327156      -0.72424072799803       0.94751971423085
C        -0.72409540059440      -2.10933687149776      -0.75191061912680
C        -1.97174744311923      -1.57145310098563      -0.78911749014895
C        -3.25004360092366       0.04192244292779       0.66379996133714
C         3.21976027605667       1.22588665772383      -0.48651860174362
C        -3.04785744485984       1.52247083858524       0.36721425088563
H         1.31635582537869      -1.67820814537942       1.84193413870104
H         1.41542479034001      -2.96132905386606       0.60898867247324
H         2.16610493753365      -1.25885321279522      -1.08222385603559
H         3.28279782168925      -1.42320071141092       0.28176713865718
H         1.16752637288656       0.77262877453614      -0.01103425900424
H         2.28294235038470       0.59953994148253       1.35214218439978
H        -0.70378687419087      -0.18347061981723       1.85380433623971
H        -0.24811014288668      -2.83226955289367      -1.39078717680529
H        -4.09995376339974      -0.35697547219192       0.10536052951551
H        -3.40576169353971      -0.12715701663575       1.73362426395105
H        -2.78999621463259      -1.73322776054437      -1.46872079434383
H         3.10485025194911       1.08095556012425      -1.56158297512772
H         4.22255938417030       0.90913084018272      -0.19810146710665
H         3.11334712732286       2.28764840430216      -0.26496248744911
H        -2.20003921106824       1.91009405688106       0.93098833988818
H        -3.94298586591555       2.06977691358687       0.65852072273991
H        -2.86601205652854       1.68011994908056      -0.69595194981695
S        -1.30639331340880      -1.95878327714944       3.93219665235884
O        -1.51005622853261      -2.09100006171176       5.34684121840531
O         0.03253063862137      -1.54913953225419       3.51838031254059
O        -2.36134373524597      -1.26156449487282       3.20173430055448
C        -1.42246275424387      -3.68549938638820       3.25052051788669
F        -2.64204197409974      -4.19228540225302       3.37590242083090
F        -0.55969821593943      -4.51175465695024       3.82657433815271
F        -1.13302794179813      -3.65590120851569       1.93420098581503
