47
C13H26F3NO3S optimized with DFTB in AMS.
N        -1.72716563186277       0.21455101676325      -0.17759872823072
C        -1.92224809760233      -1.10658775660698      -0.87030035810758
C        -2.81406679869371       0.30161112722517       0.86896966555698
C        -0.37160480692024       0.25695642419081       0.48724552634722
C        -3.37963365600536      -1.46882277489251      -0.63852885114218
C        -3.59461265718993      -1.00662722344594       0.79951367295002
C        -1.88150221444351       1.32179431854032      -1.19454989203142
C         0.79894340284285      -0.11248047767433      -0.42175277190774
C        -2.04554778568085       2.71562209816507      -0.60523160932084
C         2.10709799850730       0.03677627270290       0.36659004986687
C         3.31472681937673      -0.20033418316686      -0.54400401655505
C         4.62340494815190       0.05343039485754       0.20908413080642
C         5.83500919594159      -0.18522189466715      -0.69006749915120
H        -1.27803298119728      -1.84494552797760      -0.38906621566954
H        -1.64512761246357      -1.01353530379444      -1.91957163737234
H        -3.46257900399652       1.14313459287572       0.62742191816837
H        -2.36392767333357       0.47661167389127       1.84584440718837
H        -0.41929888884411      -0.43651363568461       1.33181444387829
H        -0.23100002860086       1.27132394194769       0.86555760260687
H        -3.54560785538743      -2.53903188759583      -0.76342157265235
H        -4.03454576381393      -0.92448129740746      -1.32338912415255
H        -4.64726259019007      -0.84835369531569       1.03587573880258
H        -3.18265824293854      -1.73989467591382       1.49769537201957
H        -0.99044967621602       1.29394160791022      -1.82340681490076
H        -2.75326073429365       1.06898126486037      -1.80410156087018
H         0.70674879054691      -1.14138939925691      -0.78281483555787
H         0.83299050588400       0.55128495164579      -1.28644704708568
H        -1.75132292438440       3.42953159285817      -1.37430571033233
H        -3.07691158088128       2.91912763343255      -0.31765674226121
H        -1.39629150584463       2.87305310412362       0.25206954598420
H         2.11710293067350      -0.67242133526196       1.20247007410434
H         2.16210486807667       1.04819523976672       0.77770163870017
H         3.25614395231420       0.48280618169448      -1.39659828939082
H         3.29527859243338      -1.22746796669083      -0.92701189047552
H         4.63457243488523       1.08868574231012       0.56432558922629
H         4.68093426499175      -0.60494879320421       1.08369487088361
H         5.80339304863084       0.48002083952624      -1.55374234389317
H         6.75531017612690       0.00667851697944      -0.13733329291275
H         5.85242312113064      -1.21683514048320      -1.04650221679310
S         1.44870453379809       3.23188059934945      -1.04014255228536
O         0.86480730448085       3.06052232361333       0.28830723636142
O         0.61978068681845       2.68206469199649      -2.10947379968853
O         2.85140054998021       2.90539189845462      -1.12850603376081
C         1.33787427395446       5.05715128858579      -1.32059534755973
F         1.95468089138840       5.73248510675178      -0.35929297507785
F         0.05378644676886       5.42505360821260      -1.32710113839992
F         1.87045052918081       5.40295870830879      -2.48528592771248
