20
C6H8BF4N optimized with ADF in AMS.
N        -0.24475323241976       0.14371082662419       0.29006101311729
C         0.34674264505659       1.19030935957972      -0.32388202080153
C         0.42170278603347      -1.01342082801569       0.48666495182147
C        -1.55738862390847       0.33307497577589       0.92621117605538
C         1.63001297921823       1.07934112403303      -0.81654076861018
C         1.70684587263394      -1.17106332410234       0.01132407304805
C         2.32476632422328      -0.11168491124421      -0.64171895053986
H        -0.23820303227214       2.10401815881349      -0.38449610699212
H        -0.10520991998823      -1.78192417194538       1.04567733692766
H        -2.07589109903737      -0.63068495961794       0.96408398199863
H        -1.36518840939394       0.72030995961802       1.93624770573043
H        -2.13938326865665       1.04601529884779       0.33238070899561
H         2.08885877290044       1.94331297684467      -1.29519647654311
H         2.22736790858751      -2.10945174962189       0.19709732774356
H         3.35483142016937      -0.20409107187578      -0.98700358405955
B         1.34544693037101       1.12901087925203       2.92632211613204
F         0.51668973823494       2.08975842278421       2.22724166679594
F         0.58192922912000      -0.09916435754491       3.01453497458534
F         1.66065176301283       1.59623389739781       4.20079991419241
F         2.50829701851494       0.88414318369728       2.14937483940253
