36
C10H19BF4N2 optimized with ForceField in AMS.
N         1.90580146302718      -0.94509863254898      -0.21884829149216
N         3.14840486448595       0.89359625317389      -0.08775442781521
C        -0.38099364145866      -1.87265931749736      -0.07146809963709
C        -1.05085725658136      -0.51685935792764      -0.33882703725769
C         0.99821557769335      -1.96717858706138      -0.73787363868919
C        -2.46282916479811      -0.46633953321397       0.25544629234269
C        -3.10026958332087       0.90967587091392       0.02755607388200
C         2.37936492679980       0.12669070700439      -0.88451067578750
C         2.39763800118572      -0.85607920634731       1.03406461024112
C        -4.51208480676202       0.96929323744379       0.60259564917337
C         3.16673312325348       0.28782992401047       1.11565949359473
C         3.80133992216145       2.14777403998008      -0.43823907833032
H        -0.27501790503775      -2.03073483229532       1.02414143765436
H        -1.02187451320540      -2.68715887822760      -0.47456591923733
H        -1.10780372068254      -0.34300815176692      -1.43618442918523
H        -0.43808748807427       0.29285220404860       0.11501808627046
H         0.88374109015629      -1.85304791495275      -1.83847639873180
H         1.43257324751477      -2.97241696877971      -0.54886165417200
H        -3.09173773024842      -1.24951473672054      -0.22338774626909
H        -2.41121203810677      -0.67145929894599       1.34794359096586
H        -2.48098402321898       1.69409875187428       0.51563703247182
H        -3.14656520696348       1.12615930558806      -1.06233442873949
H         2.14906398789653       0.35584704917270      -1.91764069206526
H         2.20017785152627      -1.56112867570808       1.83103927568179
H         3.68807722519861       0.65682793300113       1.98900502398039
H        -4.49183451396078       0.77944194970355       1.69705288675044
H        -4.94192244118569       1.97786099118018       0.42532413441841
H        -5.16176460429139       0.21464390543896       0.10996961329714
H         4.89741423294296       2.05356177225155      -0.28928740857501
H         3.60424361837136       2.40307349362689      -1.50029663390170
H         3.41123713191732       2.96429460992960       0.20530449633603
B         3.28529426281870       4.63007064779453      -4.82078718307599
F         4.50088535330329       5.35942435035799      -4.73417222905860
F         3.23930765131351       3.93058390502053      -6.05586170732883
F         2.18756262719713       5.52775762689813      -4.74333034623357
F         3.21296820963282       3.70185902438032      -3.74959046167754
