43
C11H24F6NP optimized with ADF in AMS.
N        -1.05193674498657       0.41202302517487      -0.09597531217062
C        -2.21817851371960       1.23515926111025      -0.62901147383288
C        -1.46214926639310      -1.05731372120857      -0.10292988311101
C         0.10075849641722       0.61542400006999      -1.07238623284487
C        -0.66145069435586       0.81471514255799       1.30808273576391
C        -3.50455707185175       1.01867786788964       0.14837721059410
C        -2.75757805667329      -1.32250339407281       0.65093273811542
C        -3.90582766704253      -0.45632380793370       0.13542446370784
C         1.39353902532523      -0.10582134313359      -0.73292352355538
C        -0.18561073191966       2.24636824581767       1.45924279669308
C         2.34706830953492      -0.03569349682111      -1.93228559629159
C         3.67537737538100      -0.73281719880282      -1.65534694963164
H        -2.33872098774268       0.91569246196831      -1.67566031448474
H        -1.89506702106948       2.28504104538922      -0.62383415314219
H        -0.62730546795073      -1.61937460940528       0.33616423826201
H        -1.56503693153913      -1.32917337578781      -1.16414977112065
H         0.25915935515337       1.70254996977668      -1.13489935906311
H        -0.28276962248716       0.27902030026206      -2.04493491228219
H        -1.53661756785800       0.63305744783585       1.94392029453372
H         0.12384632012909       0.10752995089336       1.61503290801469
H        -4.27728160653674       1.63082293942485      -0.34599389139580
H        -3.42198481097607       1.39944225578721       1.18261116105702
H        -2.62337776184151      -1.18973957219298       1.73933968349762
H        -2.98693716371434      -2.39053067958292       0.49775392838382
H        -4.80886398608858      -0.61623967046925       0.74658171119814
H        -4.14108885466000      -0.75170672178013      -0.90059830421470
H         1.20284665377994      -1.16931755032976      -0.51538332669468
H         1.88513316056085       0.33359502009960       0.15379317825730
H         0.05487806559402       2.41077867228140       2.52079014264499
H         0.72416241743154       2.45086788561499       0.87826713140879
H        -0.95728361316532       2.97778899352368       1.18208634921804
H         2.52772376258926       1.02104324799767      -2.20004458043384
H         1.85022750760989      -0.50084251280953      -2.80116379680646
H         3.52024678488694      -1.79582403614000      -1.41042423051215
H         4.21098431500322      -0.26576134466640      -0.81286381661423
H         4.32986766928688      -0.68688423511972      -2.53847628179940
P        -1.95997559159405      -0.92743500081414      -4.25549343621661
F        -1.55837923028310       0.63660532271520      -3.77868645583553
F        -3.20423616295526      -0.33850672611722      -5.13789665170577
F        -0.92919214197202      -0.80987628341577      -5.51842884918827
F        -2.34517077218255      -2.46983350905936      -4.63714495595084
F        -0.70121938716844      -1.48776311551832      -3.28033285420600
F        -2.96326626445586      -1.01514234100926      -2.90249546464536
