37
C9H13F6N3O4S2 optimized with ForceField in AMS.
N         0.07023167017295      -0.62180248382696      -0.43668527287906
N        -1.99342994005564       0.13049173452579      -0.09710813985764
C         1.43975657591767      -0.72789144034843      -0.93666629865664
C         2.45497892890915      -0.38057356491530       0.15827215953544
C        -0.83631303951094       0.32135476276175      -0.75926904355925
C        -0.53573874088367      -1.43725872001673       0.45015438329517
C        -1.81717034699263      -0.96943442276111       0.66073091798350
C         2.31418278495673       1.06614130384007       0.62925926584279
C        -3.18903645205670       0.96138783128478      -0.15711123586151
H         1.58421186095117      -0.04636872668325      -1.80395224970587
H         1.62061462162671      -1.76496366847357      -1.29296207341159
H         2.32920866910062      -1.06600620011007       1.02431184835670
H         3.47954702692841      -0.52609507313019      -0.24689466321749
H        -0.65124040353241       1.13758676716920      -1.44693697352752
H        -0.07915065627258      -2.30373713348536       0.91133207638551
H        -2.56138574811423      -1.39479646504218       1.32182485232724
H         1.36412799479410       1.19968099453372       1.18943764201988
H         2.33143599636283       1.76252166023553      -0.23586139223275
H         3.16002844156801       1.32070439627005       1.30025047236495
H        -3.03530429673270       1.81539304406296      -0.85099546923340
H        -4.04746110823812       0.35577282979681      -0.51571827396653
H        -3.41749230467023       1.35851201697240       0.85431694731491
N         3.51275992483831       2.33830585324879       5.75231742873816
S         3.37933594597699       0.75634753597171       5.34464469208012
S         4.38631911848452       3.41230289567369       4.87421243452983
C         4.67007042330711      -0.17031447323784       6.14865582874614
C         3.28710630265328       4.33996666526042       3.82443633983978
O         2.04802016096682       0.23741146223934       5.80889802313486
O         3.49386369465480       0.58130691490761       3.85637627509349
O         5.41047201999428       2.70564894427913       4.02990966225768
O         5.07803193910133       4.36453805942599       5.80820701547868
F         4.55340922123023      -1.50712434851272       5.81877531359267
F         4.55753997815962      -0.02501566536776       7.51826535050820
F         5.90460489269722       0.29587891867790       5.73895486141371
F         4.01589605833492       5.24168299696140       3.07256693498113
F         2.37416327618466       5.02548588216658       4.60310844239403
F         2.61224722948738       3.47946368134584       2.98025764099467
