50
C14H15F18N2P optimized with DFTB in AMS.
N         2.26580781201107       0.88698496884473       1.85478913196774
N         3.87294460466008      -0.13191613928244       0.85089691648756
C         1.35856657998726       1.93931065545398       2.30124938838483
C         0.05283925098177       1.89771355129878       1.50542246422557
C         3.24842873985040       1.03843687919344       0.97086051831291
C         2.25919758347041      -0.40390334594668       2.30585033113496
C         5.05995762633020      -0.36793019399820       0.03160369157981
C         3.27562512136699      -1.04704181248302       1.67278216860934
C         0.26999510870454       2.22559508700845       0.02978651284679
C         4.70502346264588      -0.29821765560298      -1.44791339924243
H         1.86568535633363       2.89690599353162       2.16910007839582
H         1.16894973083976       1.77977538831785       3.36519803940201
H        -0.40364280234430       0.90810558074051       1.60482150476393
H        -0.62637703258740       2.63131479494283       1.94761352307081
H         3.52461051823553       1.95603883246896       0.48167590281472
H         1.55546177387408      -0.74926868140167       3.04253425079281
H         5.80058236807898       0.39244075681292       0.29230149082159
H         5.45107565365445      -1.35282717716073       0.29564474644441
H         3.62512562919254      -2.06162159280160       1.74963735500425
H         0.92215743550521       1.48581581727762      -0.43698048237814
H         0.72556216477607       3.21019822910011      -0.07899858668735
H        -0.68540801771459       2.22357044965210      -0.49362061582042
H         3.95075236508410      -1.04425400754072      -1.69715840070572
H         5.60090905112026      -0.48891360001738      -2.03679902422870
H         4.32253262511235       0.68969893403367      -1.70159318059768
P         5.47741801765550       3.51447392339821       3.26884216764902
F         4.63102160509242       3.57200817525725       4.70835276632088
F         6.85273054845135       4.07689138055373       4.00382580771761
F         4.05543096749936       2.92002546325981       2.49668474558463
C         5.87943726472069       1.64612427423009       3.73491924246844
C         4.84636991813712       5.36151816163752       2.94269491903782
C         6.45383449364466       3.34633517240324       1.48690383568595
C         5.02204970699703       0.93401951771155       4.81380589572912
C         3.72314929309817       5.53975877417651       1.88060009841277
C         7.88521166281291       2.73845829255311       1.37503396718712
F         7.16325122080034       1.48822218855228       4.08344818688053
F         5.68619896459833       0.89197814679796       2.61592320295157
F         5.86375386821141       6.16611743923014       2.60141050783197
F         4.33536649724828       5.86627023981427       4.07747810837633
F         6.53971709525258       4.56558534612854       0.92901746939513
F         5.70332019931286       2.60214121707209       0.61938455025352
F         5.29609714922912      -0.37817777044847       4.81116355420731
F         3.71625650821008       1.04938015840297       4.53347907178201
F         5.23716086173073       1.39092734580909       6.03454572436659
F         2.55348718360933       5.10231552537917       2.36650569663670
F         3.57000255458064       6.82022941954624       1.55693975364046
F         3.95713628098964       4.86158266218759       0.75516179213226
F         8.67453773914115       3.08808005758577       2.37923948669786
F         8.45984973142893       3.14301713167786       0.24024310694505
F         7.82821275907793       1.40299659144130       1.32925875430990
