36
C8H18F2N2O4S2 optimized with ForceField in AMS.
N         0.41986304423654       0.23211889198435       0.04199681754569
C        -0.52662135123752       1.28247750214833      -0.45240243514049
C        -0.10232220619082      -1.13095802193238      -0.28126549123956
C        -1.98661198962336       1.08533592728307      -0.00071536169420
C        -1.54332984444565      -1.36819574865848       0.20280929764038
C         1.72115905425288       0.45996809800684      -0.66918013289486
C        -2.48404892358493      -0.31000374769548      -0.36017134092176
C         0.62775001199617       0.38690515324057       1.50820239963679
C         2.84735138012891      -0.53607959958532      -0.33585785789662
H        -0.53583632904811       1.30007128384410      -1.56727116375611
H        -0.19350279362109       2.29342899588786      -0.12376044636700
H         0.53068834456301      -1.91819738066326       0.18323485982232
H        -0.07807638094810      -1.30052027406076      -1.38247188028986
H        -2.62663778152715       1.83527726411232      -0.51397622371737
H        -2.09814267697631       1.26404028892936       1.08855210306230
H        -1.58841381435611      -1.36792405680269       1.31262739298207
H        -1.88147173331147      -2.36994461259039      -0.13978210773445
H         1.57163706238480       0.41653980746910      -1.77261124326363
H         2.10424834935149       1.48331564201485      -0.44898455255267
H        -3.50371063717663      -0.45995014201433       0.05581241478464
H        -2.54349591539175      -0.41301365135418      -1.46635265606188
H        -0.32544956638696       0.40125429096628       2.07074567666043
H         1.21358226727454      -0.45688522253004       1.92967767152274
H         1.16057708813308       1.33587592019775       1.74025171218435
H         3.76646325178581      -0.23124013991024      -0.87967953186441
H         3.09165571705146      -0.53912678539325       0.74375582318733
H         2.59416248375994      -1.56206592000831      -0.67085771222147
N         7.16381504233174       1.84934943802306       2.90538907503760
S         8.26520443103604       2.99062203085898       3.30778605530705
S         6.19129340725708       2.02820554969257       1.60135244398808
F         7.47202924084908       4.33464118284884       3.91432719614023
F         7.07170232691174       1.72479615709198       0.20988499300756
O         9.19526056939125       2.44567778414807       4.35350825153059
O         9.05047084034783       3.39542139036273       2.09220432157001
O         5.65703161114994       3.43165498069352       1.54492894423053
O         5.05117760293267       1.05589539209455       1.69052378177563
