24
C6H9F3N2O3S optimized with ForceField in AMS.
N         1.11142858138667       0.01435855536928      -0.00968750763546
N        -1.11088811779487       0.01300802008971       0.00220905349068
C         0.00078989767931      -0.74903757355626      -0.00316672925630
C         0.68951241335760       1.29378310251240      -0.00553042680056
C        -0.69000668992257       1.29310707256555       0.00162583770163
C         2.49628984917292      -0.43788181067118      -0.02358130747856
C        -2.49517539859944      -0.44271624145002       0.00143087756117
H         0.00134894847860      -1.83229869898043      -0.00499578943918
H         1.33541404937979       2.16200716444415      -0.00591543999553
H        -1.33586039767254       2.16129343378142       0.00535693842829
H         2.54657912214661      -1.54749742617160       0.00964964815566
H         2.99647782506938      -0.08019800877642      -0.94753883638185
H         3.02967427720359      -0.02259827731561       0.85579933156071
H        -3.01399252821482      -0.06044778828194       0.90553277907653
H        -3.01224443511037      -0.06165036983018      -0.90430976445011
H        -2.54130879599209      -1.55270533816392       0.00178863210081
S         3.33217914855861      -3.51701463772193       4.48039138646681
O         1.90381657752733      -3.25338981540107       4.97871043664986
O         3.13439772837786      -4.61274670511068       3.42286566045893
O         3.97594390182936      -4.27381316838530       5.65104482391602
C         4.23552191894136      -2.04959003161882       3.91396380976331
F         4.35729487026108      -1.15000699835869       4.95550033457379
F         3.54107613711216      -1.46027077415168       2.87785210373862
F         5.49198116992447      -2.42004504601678       3.47434086799470
