32
C8H18BF4N optimized with DFTB in AMS.
N         0.15599971003482      -0.20902183477952      -0.11667482046005
C        -0.43681804285979       1.16789128579754      -0.16632317959507
C        -0.70017985076441      -1.14383428097724      -0.92490101892880
C        -1.88200577193743       1.20647847052118       0.31947146424192
C        -2.15222595637029      -1.14701309790380      -0.47133790358378
C         1.52791075002170      -0.11490707475445      -0.73670165220922
C        -2.75179956173783       0.25593203629622      -0.50115522144028
C         0.28707068645875      -0.65902704140213       1.29666034597235
C         2.28979199863088      -1.42806789649971      -0.83693407673415
H        -0.38745939199596       1.50208697489046      -1.20673616608920
H         0.19355839383601       1.81957690539003       0.44398028406116
H        -0.28470734025580      -2.14745035528898      -0.82010025686402
H        -0.62204889829834      -0.81803360481983      -1.96624675919683
H        -2.23849709293941       2.23428746056514       0.20904483517626
H        -1.93538973651291       0.94811501154102       1.38008964649687
H        -2.22595288133126      -1.57799626520049       0.52950983085036
H        -2.70166240461471      -1.80305738998664      -1.15080968114720
H         1.39051174741901       0.31093865265863      -1.73501776093051
H         2.09090685872102       0.60039509669700      -0.12947261455289
H        -3.76410474417788       0.23835943640518      -0.09039891024911
H        -2.80991347730995       0.61437318766212      -1.53468187138554
H        -0.69789609433844      -0.76821231147957       1.73968936945685
H         0.78551644076520      -1.62475991343158       1.31934309849809
H         0.86569371920377       0.08255093504710       1.84511109789511
H         3.25210040909499      -1.20908521595597      -1.29947216609398
H         2.46818872945885      -1.87285307203857       0.13946516415887
H         1.76638642769808      -2.15547581024789      -1.45319950337022
B         0.36428615992896      -4.02528195858700       0.72610415333693
F        -0.77791274780730      -3.24261573496583       1.06622126698145
F         0.55472143637679      -3.88209885447866      -0.67205524307698
F         0.20621744049560      -5.32890264050157       1.08536586263703
F         1.47769426690726      -3.42687859227220       1.36507020744456
