66
C18H28F18NP optimized with ForceField in AMS.
N         0.00437751624534      -0.00452434214867       0.00050610515125
C        -0.84436533732474       0.63607077074274       1.06727608537328
C        -0.84312640121571      -0.64427183600191      -1.06783323235126
C         0.85136351453392      -1.07239862301825       0.64119041356391
C         0.85406100342709       1.06287228402411      -0.63782504175806
C        -1.91268861788226      -0.27703788334750       1.72163929085656
C        -1.91294704958469       0.26876611356463      -1.72055683934600
C         1.92262672964702      -1.72501171180951      -0.26966269632767
C         1.92406318409517       1.71323741853675       0.27715738744461
C        -2.71805401497439       0.49549441775615       2.76364784066899
C        -2.71820524187801      -0.50229024022058      -2.76396299643599
C         2.73346057951082      -2.76023168203555       0.50655319605939
C         2.73271852223178       2.75437021269055      -0.49287558963115
H        -1.35257083479740       1.54270814387765       0.66996266640280
H        -0.20245832797400       1.00097909033421       1.89731988731248
H        -1.35092635196878      -1.55179955488648      -0.67196503716383
H        -0.19978865555355      -1.00747651507046      -1.89807976318720
H         0.20866246292429      -1.90306763540087       1.00410342285090
H         1.35723282262564      -0.67558384561135       1.54776565451906
H         0.21245977965214       1.89453071285932      -1.00077061723399
H         1.36131241927231       0.66725673848155      -1.54573566186417
H        -2.62726392781476      -0.66976013661639       0.97115032011649
H        -1.43613705127363      -1.13389423927723       2.23901229481279
H        -2.62826824162188       0.65878614907963      -0.96939833978127
H        -1.43756581982213       1.12770739704096      -2.23557927937863
H         1.44726988379225      -2.24676938775071      -1.12467841580274
H         2.63422101330212      -0.97349119479166      -0.66556964021989
H         1.44847612755706       2.23047976259564       1.13453047797482
H         2.63687875851944       0.96101744708005       0.66989792050890
H        -3.47426298552657      -0.17554540724453       3.22322800331264
H        -2.04912502460804       0.87581239373369       3.56505247929559
H        -3.24485019088087       1.35045249378977       2.28884572798996
H        -3.47511358966132       0.16913885129590      -3.22193886413374
H        -2.04963666390332      -0.88059029612577      -3.56652865342004
H        -3.24439533628272      -1.35854219926275      -2.29082944644537
H         3.48427908315286      -3.22619559008440      -0.16612523450222
H         3.26719585591843      -2.27785731032326       1.35290558446896
H         2.06753655772667      -3.55807048737633       0.89924835282394
H         3.48931433021185       3.21092924188133       0.17978973736485
H         3.25904808766549       2.27973813046115      -1.34818326196506
H         2.06625243343001       3.55808602064009      -0.87256950840479
P         4.65839068547260      -0.51286151661405       6.54734259418579
F         3.91939829257280       0.44693766919278       7.77068742574284
F         5.65165818108348       0.43563215068321       5.50539376226891
F         3.98881648113974      -1.69214955721299       7.60620831506969
C         6.18174592006381      -0.11498634353729       7.68000280985153
C         3.13304164096308       0.34554706746677       5.71994050026181
C         4.85757924202992      -2.13318462040736       5.51122243571926
C         6.11184054596805      -0.56486454442441       9.16512090355624
C         2.94839694599225       0.14398135739762       4.20120221552124
C         5.96605578132208      -3.11238906048335       5.94494890243316
F         6.38061790645535       1.26024612631727       7.70015573247707
F         7.32101258136760      -0.67183283724279       7.13479526051752
F         3.21157860261452       1.72234158361382       5.91058821563921
F         1.97496066137333      -0.11253229626592       6.33294325653562
F         5.14992898707162      -1.78956134635645       4.20343543564987
F         3.65754286862136      -2.83130363945938       5.49416623782034
F         7.34046397596079      -0.32934868683754       9.75649775636886
F         5.83651435275329      -1.90908713569652       9.29603561215798
F         5.16564253429946       0.15653720731978       9.87107689589038
F         1.91566895008914       0.95817786279122       3.76970980759936
F         4.08443689977840       0.49815857708673       3.49777159309906
F         2.59822620705797      -1.15769311820810       3.90378155445611
F         7.21401642400694      -2.61521949755707       5.62137059399816
F         5.80435182180721      -4.30258588678239       5.25745140262356
F         5.91071509184227      -3.39536577534530       7.29129069293734
