43
C13H24F3NO2 optimized with DFTB in AMS.
N        -0.33825740995148       0.36578042732066      -0.31697491094605
C        -0.89560083743109       1.25460468890378       0.75444504899928
C        -1.37045838121121       0.21323926459125      -1.39960750414056
C         0.05369248310425      -0.95731258347953       0.27959519062976
C         0.84561519594933       1.05343864150129      -0.95386956892489
C        -2.22875339437663       0.76553720906826       1.31259478898852
C        -2.69758921826839      -0.32345669698109      -0.88736352832996
C        -3.26177901353714       0.58827745098870       0.20071824548472
C         0.70405210060493      -1.94589376533950      -0.68781455094395
C         2.05618464019442       1.25881609017078      -0.04997253707320
C         1.03772735474483      -3.23343735858802       0.06266055074780
C         3.13102969247977       2.00334419690852      -0.84454081675809
H        -0.15608008404184       1.32045828437337       1.55489462515939
H        -1.02237911793782       2.24475449461130       0.30810154993354
H        -1.51395518295195       1.20548215272101      -1.83262620180120
H        -0.94815919453179      -0.43666461933961      -2.16843324764593
H         0.73253357634038      -0.73978449900123       1.10841430149065
H        -0.84913058773906      -1.40643881141879       0.69778287827286
H         1.12386560629760       0.45138507105570      -1.82296309464925
H         0.48382732234324       2.01867962513432      -1.31493424070064
H        -2.09586091009447      -0.17334750302963       1.85699387391760
H        -2.57649748211856       1.51522584648405       2.02852960777187
H        -3.38427874609180      -0.35573530714005      -1.73679716587015
H        -2.58990872800386      -1.34387295595628      -0.51016277202273
H        -4.17723492908521       0.15912055769378       0.61458669640791
H        -3.50645903071756       1.56447072098837      -0.22998684294688
H         0.03059964378927      -2.17322977415114      -1.51558844729732
H         1.61753296975382      -1.52853188198493      -1.11367404263689
H         1.79278300234843       1.84182627346108       0.83785168016807
H         2.46043996073712       0.29850068999130       0.28050293198410
H         1.50404773861023      -3.93979268723631      -0.62278553752477
H         0.13435505327272      -3.68943131309612       0.47045628235226
H         1.72971263243830      -3.03567280316598       0.88273184129088
H         4.01684080689418       2.14300871511967      -0.22586940684391
H         2.76421676851626       2.98014465293429      -1.15980994410640
H         3.40575591870868       1.43508791979953      -1.73258898415877
C         0.66664373904004      -0.31893504432496      -4.49692772784881
O         0.69464819983964      -0.82222220092239      -3.36462367708415
O         0.57497076502247      -0.76379333108304      -5.61464760886078
C         0.75053679481632       1.32265037196306      -4.39570445251874
F         1.84558258077543       1.72603719096438      -3.69854422599861
F        -0.31228717067406       1.80218097587216      -3.67693655994434
F         0.75792089704228       1.98872894371804      -5.54944431612229
