40
C12H26ClN optimized with DFTB in AMS.
N        -2.02725850067996       0.22224247652792      -0.22728504712408
C        -2.32696533016120      -0.86529214600563      -1.21040545325846
C        -3.18867487071191       0.15659221390337       0.72310129314237
C        -0.75869353241403      -0.07698758732572       0.52702364016870
C        -2.94581923744234      -1.99692820031837      -0.38994241399601
C        -3.47905676110976      -1.32877805723425       0.88827310436194
C        -1.97989011365762       1.54653017879451      -0.93004925824569
C         0.52270218156595       0.06285888589239      -0.28679018433560
C        -1.71145575983132       2.72876536834874      -0.01262218570004
C         1.70853429737012      -0.35562586619729       0.59199748486323
C         3.03341480538300      -0.20128913726545      -0.15971919133312
C         4.21780083658281      -0.61708372675398       0.71854522424855
C         5.54319371936352      -0.46593040736886      -0.02588176109395
H        -1.41671581684121      -1.15482519368977      -1.73470120419739
H        -3.04522379566427      -0.47242616447806      -1.93412328196093
H        -4.02858507303302       0.67229726545929       0.25188698229861
H        -2.91315576603963       0.65617220817280       1.66031897000313
H        -0.85106825527634      -1.09949251303114       0.89803307238642
H        -0.73975790009806       0.59951309757741       1.39101854248880
H        -2.19885967655683      -2.75664550587126      -0.15153115826145
H        -3.74515385454426      -2.47519076592002      -0.95869470469741
H        -4.55107003841589      -1.49280973022569       1.00908137163589
H        -2.97457154582591      -1.72565948695237       1.77120291449235
H        -1.21263839185606       1.47268776723237      -1.70493380628942
H        -2.94956147541342       1.67042582689090      -1.42111190349210
H         0.49544713584360      -0.56444766890541      -1.18402268451274
H         0.66748251938314       1.09899604185950      -0.60294407816137
H        -1.75968745432411       3.63497277489741      -0.61622923137110
H        -2.45284343157389       2.79280829336146       0.78029694325779
H        -0.72830953824447       2.66855152788826       0.44747983858868
H         1.58141871181810      -1.39786566682587       0.90313862062081
H         1.72338989585032       0.26411227554958       1.49358044604300
H         3.15656454840696       0.84225861222876      -0.46909939149156
H         3.01406097405206      -0.81778706323351      -1.06555956510462
H         4.23459232752536       0.00189256662048       1.62143601985837
H         4.09145488202623      -1.65952697940869       1.02979801808757
H         5.69668858709110       0.57138868640214      -0.32655654745837
H         6.36959982538093      -0.76655627467107       0.61832499894191
H         5.55402350386897      -1.09139377200623      -0.91978882980242
Cl       -1.62765972979669       1.67929553378135       3.06576974039972
