41
C11H22F3NO3S optimized with DFTB in AMS.
N        -1.44149288067241      -0.07320567272584       0.44995475240484
C        -1.84700609472914      -0.86340318191946      -0.74983690800761
C        -2.41041208634189      -0.50325034829224       1.50993513716571
C        -0.04632773343157      -0.39492409094060       0.89955788367663
C        -3.37296252212521      -0.90501585832121      -0.69794933984674
C        -3.73637324268129      -0.70883762001416       0.78377355884147
C        -1.60264581396158       1.38586214986947       0.19291065554775
C         1.04499966808921       0.12686837475875      -0.02709160159230
C         2.41119436797055      -0.24675976406625       0.56089165655485
C         3.55057381478551       0.26746527316752      -0.32337951318469
C         4.91252228606864      -0.09083551337640       0.26810908944563
H        -1.42338094432807      -1.86556513559336      -0.65004704132032
H        -1.45544798761243      -0.39441784886886      -1.65256945154118
H        -2.44581145510718       0.26306993561676       2.28682162923603
H        -2.04268388179288      -1.43840444496548       1.93694781136024
H         0.01505861346565      -1.48208100506414       0.99561051450470
H         0.07102045529742       0.05733502452398       1.88500861936403
H        -3.73761111702861      -1.85956287496465      -1.08073947246437
H        -3.80060635934765      -0.10846811785516      -1.31044857058893
H        -4.38862916281463       0.15726541380494       0.90924606264096
H        -4.25287653307037      -1.58175079998994       1.18629796128563
H        -1.08361287091112       1.65016620937640      -0.72531601813000
H        -2.66103208847010       1.61286384962038       0.09344912687577
H        -1.18522395682489       1.93329477554528       1.03496364962913
H         0.93564356264692      -0.29362067201141      -1.03200228040275
H         0.98535037638527       1.21546558866183      -0.09573979987461
H         2.48385281262183      -1.33502066927829       0.66241344430306
H         2.49516300526108       0.19324915499923       1.55953732781237
H         3.47057816389509       1.35504265645697      -0.42055388019805
H         3.46048630786650      -0.16639664465755      -1.32554613043376
H         5.02656131507059       0.35350006442142       1.25737591912169
H         5.70868743094087       0.28357316766268      -0.37544105930644
H         5.01804553579875      -1.17287608807301       0.35885120161691
S        -0.52752205265896       2.27836736918676       3.58614491943818
O         0.43501678595457       2.06742386875410       2.50783602836358
O        -1.90616785938533       2.04268541257541       3.16535703956378
O        -0.31168867134024       3.44233094946986       4.39671930528235
C        -0.20652410712136       0.82074196820370       4.69226013214750
F         1.07416369991167       0.70480039830384       5.01486671917858
F        -0.55218463253620      -0.30003318729487       4.01967900328612
F        -0.92401914893701       0.85329700209365       5.80430406434430
