40
C10H15F6N3O4S2 optimized with ForceField in AMS.
N        -0.68667723614437      -0.90335787197478       0.41959117245925
N         1.50206469027622      -0.52197325995789       0.34511635630340
C        -2.09502016659654      -0.79911589391660       0.79681437243759
C        -2.90013390589426      -0.05029317685177      -0.27345462059352
C         0.35035137279486      -0.26254296873040       0.99336475404854
C        -0.17297234190271      -1.59698577327454      -0.61646396966113
C         2.81266417184780       0.05659308829282       0.62629992655067
C         1.18470074982752      -1.35654550579052      -0.66530745221249
C        -2.39638833244809       1.37884498291152      -0.47641574649447
C         3.12455719367396       1.16849781631021      -0.37003089062285
H        -2.19184053115201      -0.26778376092178       1.76930179886127
H        -2.51416071390850      -1.81982797943447       0.92852697670003
H        -2.84993933682776      -0.59936952827913      -1.23845449929087
H        -3.96502523057056      -0.01338971592228       0.04233871836195
H         0.26204426826676       0.41098157888290       1.83699113759261
H        -0.74550064417558      -2.20933668760425      -1.30095971645356
H         2.82912956449503       0.47805106835415       1.65498643988030
H         3.58934208957639      -0.73504714689773       0.56961647680988
H         1.88166435290586      -1.74106682591949      -1.39772231921145
H        -1.36457067785451       1.37256805947506      -0.88774942109114
H        -2.40342198210238       1.93289027346434       0.48627481835851
H        -3.05541301137391       1.90788828129451      -1.19655968473424
H         3.08825381393787       0.78083456407580      -1.40984529676586
H         4.13942336984719       1.57350932105346      -0.17355970377959
H         2.38263501127478       1.98881151431920      -0.26620318445635
N         6.49185478227558      -3.25179679402549      -1.80066936477937
S         5.82168605333172      -3.91475379090104      -0.45964689316621
S         6.10973004919819      -1.74945088317337      -2.33286558164169
C         4.36273177958007      -4.82761587132788      -0.91856102592712
C         7.31712952592914      -0.58788079025121      -1.73050686366215
O         6.80741987191598      -4.85902856274887       0.16734413510958
O         5.45133585075580      -2.84646142908698       0.53121525748061
O         4.74480559115936      -1.34728044987083      -1.85115751531903
O         6.13304899244038      -1.73722384230542      -3.83472097048723
F         3.81345150862760      -5.41585113626328       0.20462888178241
F         4.70004922490107      -5.80893221577117      -1.83109562654090
F         3.43685870641115      -3.97472090850678      -1.48670756788781
F         6.97398268823149       0.68758803778171      -2.13659645530729
F         8.56146289009743      -0.91115487402773      -2.23760062599368
F         7.35929173637195      -0.63313754168001      -0.35019610665659
