28
C8H17NO2 optimized with ForceField in AMS.
N         0.59012777001926      -0.01103204068848      -0.00284257605554
C        -0.27609223061324       1.07832992781518      -0.53069517914062
C        -0.32296956287842      -1.06662089482048       0.51406906950507
C        -1.70792769395847       0.77611952488365      -0.12555341966238
C        -1.73501688325878      -0.71762702919689       0.07918810408240
C         1.45631743217649       0.50079242204962       1.08570219743891
C         1.44880884776026      -0.55595853706499      -1.08118937216286
H        -0.24192159180069       1.13654908254399      -1.64381209205537
H         0.01468768641901       2.08694411175625      -0.15527540722309
H        -0.31273798891916      -1.11802714200480       1.62806941946646
H        -0.05974683633402      -2.08705381716226       0.15039870462133
H        -2.43072338742362       1.09338278080095      -0.90880375097415
H        -1.94687107146303       1.29253178010656       0.83046608094632
H        -2.48395641156150      -1.01021374049700       0.84743125713613
H        -1.97050890783733      -1.22614573418862      -0.88187779039130
H         2.14463298317225       1.29023930874803       0.70818621191949
H         0.84526685885190       0.94407663721495       1.90436239046173
H         2.07303340549129      -0.31817757813606       1.51921197425547
H         0.83059780846394      -0.96878471390415      -1.90956103480723
H         2.10578165470931       0.23715342151792      -1.50335899741067
H         2.09751499840695      -1.37536566631977      -0.69747139170251
C         0.20339126985410      -3.34034834955746      -3.88821657310593
C        -0.26938637320662      -2.91075326094097      -5.24059019081212
O        -1.38145873686416      -3.23177332626926      -5.62752037055948
O         0.45308518220609      -2.24116604348610      -5.96149216084172
H        -0.47411989183727      -2.93138515065691      -3.10882922331209
H         0.20235456416025      -4.44940172051722      -3.83070129562037
H         1.23440269286522      -2.97159738722569      -3.69768883139589
