37
C11H23NO2 optimized with DFTB in AMS.
N        -1.00057992143922      -0.08543143589197      -0.03127546755448
C        -2.23131967392073       0.27164117841908      -0.81445868484285
C        -0.51837935370904      -1.44209269798210      -0.42635361136731
C         0.03297717377961       0.95274197881509      -0.39144226193490
C        -3.33785454686393      -0.76572169635601      -0.69814322136978
C        -1.59644586288157      -2.50723204585000      -0.25819035041551
C        -2.83457449970547      -2.15655634661828      -1.08297730650819
C        -1.28601818781650      -0.01234005353181       1.42956522199874
C         1.33018038670140       0.87615417330216       0.40671325500319
C         2.18418064558687       2.09654108357677       0.06438323578836
H        -1.92458920402109       0.37184420159164      -1.85945378011160
H        -2.55475019900794       1.24968597852386      -0.43481332521625
H         0.35256646336983      -1.67960562917583       0.18788903530992
H        -0.20835588463701      -1.38439249136857      -1.47392252332242
H        -0.44274532557156       1.91723829480667      -0.20153723660554
H         0.23196333362020       0.84818459556084      -1.46167750589665
H        -4.14144496402420      -0.46293321781214      -1.37422703789425
H        -3.74964613877639      -0.78338109723949       0.31414076337296
H        -1.86349499280697      -2.61268168971838       0.79677899062044
H        -1.18041351585751      -3.46060125116237      -0.59469398752838
H        -3.61699418889606      -2.89862369191350      -0.90663656804221
H        -2.58044032905547      -2.17588392098553      -2.14809719142449
H        -0.46419905902747      -0.46459716714342       1.97887571053194
H        -1.38121154186610       1.04169970450667       1.69463580255919
H        -2.20763060568827      -0.54133142648154       1.65329334297310
H         1.10935696290898       0.91333196041728       1.47474407384769
H         1.87644977858294      -0.04659386130319       0.18553204189328
H         2.37497488496112       2.15437730441417      -1.00832753779610
H         1.66201592271180       2.99827029479956       0.38555820412817
H         3.13751061240166       2.03704527276792       0.58862464323079
C        -1.76701710295158       4.85465311825853       1.85868391373221
C        -1.47839619784204       3.40096290351451       1.42432852000547
O        -2.36483903538251       2.81769059283008       0.75823060990040
O        -0.38107461389476       2.91576065082003       1.77476080480154
H        -0.94340558581132       5.49352423888713       1.54335186360276
H        -2.70015814791033       5.20523408556864       1.42234557580401
H        -1.83466122635937       4.88792703995348       2.94546954052680
