35
C11H16F3NO3S optimized with ForceField in AMS.
N         1.74278947003163      -0.02666456663452      -0.50940505416246
C        -0.63471312233755      -0.01208113396729       0.09755445849842
C        -2.07446585736905      -0.02606921391898      -0.42444247322490
C         0.37830317573176      -0.06070952056001      -1.04936904437196
C        -3.07208777161050       0.02880451210153       0.73801630319814
C        -4.51059537428467       0.02937300595032       0.23160560985195
C         2.36440669486134      -1.19551521775994      -0.16404633695522
C         2.36378789597282       1.17555301067560      -0.30511294395505
C         3.64801600782285      -1.18099559690942       0.38554955733382
C         3.64291426605190       1.22635180250708       0.25363186703597
C         4.28736241590750       0.03920470713740       0.59786775234983
H        -0.47358332879819      -0.88985525521696       0.76135657588566
H        -0.46605456368375       0.91364218136652       0.69056575313669
H        -2.24436026240319      -0.95429993507461      -1.01373420206464
H        -2.23374262921434       0.85146436474267      -1.08949872176870
H         0.22527400741290      -0.98546666910233      -1.65028439987048
H         0.21422352504601       0.79995022470323      -1.73618065741594
H        -2.90141143071452       0.95110079666615       1.33546817724119
H        -2.92402567069110      -0.85194208440196       1.40061644861934
H        -4.69094161134052       0.91516166697825      -0.41400329539916
H        -5.20767653885045       0.07089979682359       1.09491720005275
H        -4.71531741604053      -0.89629325045071      -0.34724171351660
H         1.86275898453508      -2.14574402224520      -0.29780408098611
H         1.86620552629255       2.10406117681760      -0.55970943563600
H         4.13719430668811      -2.10830414507183       0.65410555161822
H         4.12638496691137       2.17931155423950       0.42473219183483
H         5.27654992593387       0.06527124230459       1.03579629746250
S         3.20602005769499      -6.14584703664302      -3.18868228360445
O         2.17008395095025      -6.17226301241471      -4.32194880411286
O         4.48405939447752      -5.67567575794115      -3.89837938603618
O         3.47798848275012      -7.63478003165967      -2.92973597884939
C         2.73015586666196      -5.17425968754544      -1.73077173549649
F         1.57632421680448      -5.69801273335359      -1.18045460811614
F         2.50569139263313      -3.86592006356356      -2.10961430662686
F         3.74490952396621      -5.21433282577915      -0.79413930414975
