37
C11H23NO2 optimized with DFTB in AMS. Optimization did not converge!
N        -0.87735029691934      -0.05938233855366      -0.16408339290344
C        -1.01133380179161      -0.50048175750622      -1.58929149203536
C        -2.22504445214215      -0.38729711040124       0.41724127568518
C        -1.87155950013036      -1.76582204659371      -1.55312426345668
C        -2.67111767562249      -1.67941484083684      -0.24399149189787
C         0.16523474759952      -0.85084012617182       0.56319013176237
C        -0.62085488262458       1.41891259989089      -0.09560110274352
C         1.60620593348822      -0.55616919239591       0.14827704547628
C        -0.55350973748016       1.96074366659274       1.32468447841554
C         2.54523697297373      -1.54431223648807       0.84032787162449
H        -0.02604234014948      -0.65076287792314      -2.03070375545080
H        -1.52407409037257       0.29908030999039      -2.12844270009870
H        -2.90004348179125       0.42843105826655       0.17086578067543
H        -2.15421944074761      -0.46732635060427       1.49854048020511
H        -1.24659959711817      -2.66168363016747      -1.57416959447242
H        -2.52490948378843      -1.79156625118390      -2.42719829452007
H        -3.74723719386256      -1.62735199577116      -0.41195669636369
H        -2.46662857472284      -2.53993719576127       0.39522295155150
H        -0.06251362766644      -1.90478394751521       0.38755146725279
H         0.03594491621250      -0.64673248950295       1.62793613249640
H         0.30589930519892       1.61598714171046      -0.64179889383820
H        -1.44418958104769       1.89764748505513      -0.63143311887418
H         1.72416106322378      -0.64575333288409      -0.93504681957625
H         1.88462164170579       0.46039520925888       0.43695541500925
H        -1.46919179863002       1.72861054667194       1.87370318006923
H         0.30428253257055       1.56789970792337       1.86804999954992
H        -0.45542367084025       3.04419590791814       1.26157994957262
H         2.44457181694349      -1.47166055420335       1.92348260020040
H         2.31846765135597      -2.56659145591083       0.53625296391232
H         3.57685778117244      -1.32098435906448       0.57082715882082
C        -5.46705553021244       0.80445916555248       3.43726527937377
C        -4.34723749967988       0.48808085890938       2.41244513240855
O        -4.62254848203581      -0.31249155220156       1.50333068404186
O        -3.25510654508258       1.07122383238108       2.59708252741668
H        -5.47380008598239       1.87117185355345       3.65527671186065
H        -6.43494927672040       0.49218053969063       3.04986535196580
H        -5.25342279568330       0.26134950757549       4.35774523698427
