45
C11H24F2N2O4S2 optimized with ForceField in AMS.
N        -0.22368482333947       0.30539765397737      -0.16633160751682
C        -0.91808622870907       1.28062457415384       0.73805722869322
C        -1.12474227931864       0.00373905050598      -1.32614788814431
C         0.12977751498848      -0.93541609298072       0.60915794958584
C         1.00021653387453       0.96828555550406      -0.73642645246809
C        -2.32374669098913       0.83221786679142       1.18911918689551
C        -2.51451582234262      -0.51606951973908      -0.92180091805755
C        -3.21042408034373       0.48212067299712      -0.00236201133059
C         0.92376071446727      -2.01132109554913      -0.17148348922507
C         2.12647570986757       1.28993818340291       0.27736131386030
C         1.24021637624106      -3.20702030424772       0.72439122116369
C         3.26433304598290       2.05177427562947      -0.39841117544164
H        -0.32784486820508       1.45803937454637       1.66219938206414
H        -1.02970940558354       2.26845931898295       0.23407259207732
H        -1.28948294284891       0.92646705204132      -1.93089329509870
H        -0.66108503909757      -0.72048667943171      -2.02720839517973
H         0.70832994817195      -0.66460098088264       1.51956803895772
H        -0.78004121963326      -1.42917033810644       1.00231339166626
H         1.43614820062616       0.34571804757091      -1.54976326095137
H         0.71451256378690       1.92447816837334      -1.23391819789493
H        -2.26087730773518      -0.02979189812855       1.88529965379954
H        -2.79972373438785       1.66294878037702       1.75412490606433
H        -3.13004642738738      -0.64586101336112      -1.83824164858646
H        -2.44772674990192      -1.51234827854871      -0.43840948361543
H        -4.16605649050700       0.04669875708342       0.36191873066043
H        -3.44925633330614       1.40775449408019      -0.57142956866736
H         0.33567588929985      -2.38899995290942      -1.03150420463020
H         1.88656205456961      -1.60862942060982      -0.54498595178635
H         1.75015928762303       1.91970077815457       1.10758805149139
H         2.55202215323407       0.35762118959682       0.70161965012979
H         1.80386023223998      -3.96806746862546       0.14444364733508
H         0.30154207790716      -3.67059181497505       1.09676742584167
H         1.86076725790186      -2.88918235714545       1.58915985134544
H         4.08316173304994       2.22356066553277       0.33188450115805
H         2.90487190600367       3.03632016691068      -0.76616452915517
H         3.66783491441429       1.47074631868442      -1.25360301838522
N         6.46326934919195      -2.76787077344636      -2.40538147606433
S         6.98112113485551      -3.14385911774726      -0.89989102871862
S         5.87613879536400      -1.28087905007999      -2.75114784659342
F         5.66001048527597      -3.28786785522764       0.11833184223562
F         7.14758008921866      -0.19620754178251      -2.84935558554880
O         7.72878621817323      -4.44611992870246      -0.93539672856246
O         7.88024501238927      -2.05715251418993      -0.38029591556299
O         4.93627135285830      -0.83632348248780      -1.66626264533628
O         5.15139204745930      -1.31834321569194      -4.06626410450342
