50
C12H28F2N2O4S2 optimized with ADF in AMS.
N        -0.04037135197745       0.21664540579241      -0.31352660498558
C        -0.81665907618770       0.57423284027892       0.93679415612640
C        -0.97727464381613      -0.16489638312751      -1.45941822482259
C         0.86725394019761      -0.96606408313868      -0.00531049280607
C         0.77897430430913       1.42378435942279      -0.75867789840890
C        -1.77478654499593      -0.48906812611368       1.45074190203622
C        -2.13580249800701       0.78673432204021      -1.70410470524177
C         1.81945268314707      -1.37700415825479      -1.11285227787131
C         1.83042562074247       1.90449343664910       0.22664177503182
C        -2.57112993932784       0.06844343190330       2.63126837281681
C        -2.95486330194412       0.28705652759500      -2.89640060808001
C         2.65826849801125      -2.56338297835187      -0.63678636444816
C         2.57240100241702       3.10228025214601      -0.37140213502560
H        -1.35859332168597       1.50300713035002       0.70401506479047
H        -0.06957614107151       0.80705653983141       1.70807827680242
H        -1.33938456800675      -1.18037219795012      -1.23885687971543
H        -0.33669686643135      -0.21452029854387      -2.34955191356180
H         0.19496062282362      -1.80126664740357       0.23777417599076
H         1.41604413454164      -0.69757748219803       0.91100793545307
H         0.05218586583125       2.22082434988886      -0.96864535959306
H         1.23734224529083       1.14456177430362      -1.71573577001129
H        -2.47057999799727      -0.80326016677804       0.65695842295711
H        -1.22146593473999      -1.38439471131786       1.77457236979998
H        -2.78761490414345       0.85733184729383      -0.81731697939159
H        -1.76056074572588       1.79577491325980      -1.93313503111945
H         1.27203570114259      -1.66115354521634      -2.02295797370081
H         2.48401935421654      -0.54550937116217      -1.39295130833952
H         1.37342157435532       2.20244512251757       1.18455851167521
H         2.55480162812981       1.10133221509985       0.44040681030577
H        -3.25663114884564      -0.69283660216459       3.03144617357609
H        -1.90551352839622       0.38519651103386       3.44916347010217
H        -3.17328719685122       0.93836966307692       2.32671164193840
H        -3.80365151477191       0.96218681300866      -3.08029142694215
H        -2.34310068833766       0.24833972778896      -3.80873336337050
H        -3.35711111932788      -0.72067759797979      -2.70744494477912
H         3.33719539116069      -2.88826465654369      -1.43820076280810
H         3.26890996713712      -2.30299480058294       0.24288586406263
H         2.02238044984327      -3.42266965999192      -0.37123819977086
H         3.34507941769863       3.46095857009829       0.32424398320572
H         3.04640416560225       2.83378368401354      -1.32577458257902
H         1.87990507529947       3.93308651248088      -0.57463941486412
N         1.19096568943855       0.24140426556285      -4.06126109315074
S         1.14820940355932       1.77706552361386      -4.55022705986417
S         0.50500403401946      -0.92207896745036      -4.95065287541196
F        -0.38647641263211       2.24638528481224      -4.05214340752844
F         1.57090011652393      -1.14252128069243      -6.17643369759213
O         2.01204888279249       2.52575642455269      -3.65184103496700
O         1.14731007324353       2.01618463077567      -5.97521250675772
O        -0.74271791010885      -0.56789291903420      -5.60053406006905
O         0.59317591135496      -2.14085516199467      -4.15993626079304
