32
C10H19ClN2 optimized with ForceField in AMS.
N         1.87125853594514      -0.93121208775550      -0.20709117095978
N         3.13293217825326       0.89668387066645      -0.11766337217023
C        -0.41372055306785      -1.85527781296683      -0.04027317272883
C        -1.07937607605815      -0.50101979181646      -0.32322820125975
C         0.96288006564243      -1.96215715384959      -0.70716827907561
C        -2.49085162902583      -0.43889759017997       0.26943040423311
C        -3.11949942936491       0.93900493072311       0.03055345416681
C         2.34914410839943       0.12473299142091      -0.89455696726783
C         2.37547836827623      -0.82625998467495       1.03940650847552
C        -4.52886975365390       1.01088817647224       0.60859955421677
C         3.15754078602701       0.30997861605124       1.09464126672121
C         3.79502331928182       2.13909369790430      -0.49387018328437
H        -0.30348756179558      -2.00029275307423       1.05651937472224
H        -1.05804619621885      -2.67189508612173      -0.43308587405049
H        -1.13707300837249      -0.33993464154506      -1.42213586792609
H        -0.46459308413296       0.31233889329332       0.12085799811459
H         0.84603832577217      -1.86775372240838      -1.80970679913830
H         1.39616786191382      -2.96426587520377      -0.49927186031586
H        -3.12348645375085      -1.22117197447865      -0.20542026667451
H        -2.44297186430413      -0.63630382889654       1.36306557914214
H        -2.49583086210696       1.72391364040349       0.51151772202419
H        -3.16719949589975       1.14593371651026      -1.06082732571936
H         2.11587065685076       0.33526409780933      -1.93047089035505
H         2.18305003023770      -1.51834655773503       1.84891831229238
H         3.69596592206574       0.68438896650061       1.95536502349458
H        -4.50551153773892       0.82936650525057       1.70417579787236
H        -4.95313425738815       2.02058466695643       0.42489422092891
H        -5.18302711040115       0.25571678069917       0.12345399866303
H         4.89229070607209       2.03242350849028      -0.36355729463514
H         3.58071696773310       2.38922949144943      -1.55486690117146
H         3.42771794324002       2.96529788395378       0.15046334402628
Cl        4.61053738236971      -2.87046259074823      -1.43235693616144
