36
C10H23NO2 optimized with ForceField in AMS.
N        -0.00047999728523      -0.00199317132545      -0.00022652700647
C        -0.85029200280753      -0.25977380974718       1.21478702653311
C        -0.84879557682049       0.25725990369799      -1.21605516144076
C         0.84713946272044      -1.21866532259587      -0.25822947727532
C         0.84950383642990       1.21305114218322       0.25855224380636
C        -1.90454795149954      -1.37536675039531       1.07385204287463
C        -1.90198108638160       1.37396641505533      -1.07603808940203
C         1.90048693028066      -1.07925228882034      -1.37373037325263
C         1.90280989842395       1.07245028025959       1.37507127615526
H        -0.21587504750837      -0.55233792815518       2.07798100398274
H        -1.37439919150980       0.66693509259487       1.53511503757722
H        -0.21322521198331       0.54930313268684      -2.07859868164019
H        -1.37367387300530      -0.66876017577068      -1.53710831592945
H         1.37207274317643      -1.53881883353606       0.66814715666714
H         0.21188580139505      -2.08115363326450      -0.55051084180015
H         1.37450306750495       1.53380574210457      -0.66757741846566
H         0.21501904153296       2.07637863580972       0.55055836304349
H        -2.46043008956451      -1.46105644790607       2.03132002987185
H        -2.64831184036664      -1.15301568073652       0.28443699495610
H        -1.43767277997475      -2.36167558602134       0.88390722308044
H        -2.45689854904666       1.46023266955331      -2.03405529315340
H        -2.64682045653693       1.15232629502189      -0.28743873098219
H        -1.43422329142104       2.35975728644916      -0.88556311167231
H         2.45857483128087      -2.03557366947707      -1.45915686019778
H         1.43527059158173      -0.88798809268244      -2.36052679797857
H         2.63965152593677      -0.28881485349370      -1.14745827533346
H         2.45836351813031       2.03017486848334       1.46118309127247
H         1.43491958109722       0.88263734235003       2.36092920671022
H         2.64715999845945       0.28336661876854       1.15352517968131
C         5.98843459366412      -0.91510100939479      -3.91175697126730
C         5.85382220731058       0.25738498818627      -2.99309326420311
O         5.03846508204405       0.23341051730842      -2.08637657019217
O         6.55082394530287       1.24591565056683      -3.15402058025302
H         5.79438173393761      -1.85926377582137      -3.36039126278294
H         5.25662887793758      -0.82082316390007      -4.74026889455436
H         7.01404314026421      -0.95651964783595      -4.33533879542909
