35
C9H18F3NO3S optimized with ForceField in AMS.
N         0.00340630133365      -0.00314417904252      -0.00380018972804
C         0.92144857078019      -0.84872542973179      -0.82744185478302
C         0.90531255637942       0.85297750821736       0.82690046924378
C         2.32932652955802      -0.30683473107619      -0.67706161532379
C         2.32171814928181       0.32993881559022       0.68392838479462
C        -0.83010483552925      -0.86681367337274       0.89429281327758
C        -0.83322413100035       0.85074120449950      -0.90844674278718
C        -1.81159124411575      -1.79719301996524       0.15776594334834
C        -1.83459533854382       1.76639650174298      -0.18011698943338
H         0.64141273448094      -0.88316034718426      -1.90537736145586
H         0.94712368564663      -1.90679248194564      -0.47843212912557
H         0.61833739790547       0.88088534422258       1.90325323442762
H         0.91807831882511       1.91216853613175       0.48076043063219
H         2.52496565784716       0.46324116693104      -1.45594892471238
H         3.09086750157844      -1.11287496323008      -0.74586227651651
H         2.52201788883839      -0.43874482221512       1.46302927862222
H         3.07539580562417       1.14436565014100       0.75911326252274
H        -0.16927075415782      -1.50180386468042       1.52821661992275
H        -1.41470764277049      -0.24602705305603       1.60793217978705
H        -0.17506875354231       1.49575895253038      -1.53499779447268
H        -1.40264253920905       0.22330476759640      -1.62849567582634
H        -2.27962295910296      -2.48454001604789       0.89373105856800
H        -2.62741354436399      -1.22097866904894      -0.32329221499946
H        -1.29943842424596      -2.41436811148530      -0.60778645015385
H        -2.30406489747316       2.44927027005484      -0.91935175892794
H        -2.64799264927281       1.17831826106835       0.29065603316922
H        -1.33878709335952       2.38826462708688       0.59238630642988
S         5.46434199840936      -3.26463628055768      -1.81940889180308
O         5.04426422732541      -3.94045443584108      -0.50568106263766
O         6.91350273373225      -3.73712975404202      -2.00808308455121
O         5.62749197116571      -1.79077541471376      -1.41973588211540
C         4.36599053575417      -3.56815784816218      -3.22898640108472
F         3.08954161372139      -3.13979874431118      -2.91911446681187
F         4.34303008309645      -4.92058588649295      -3.51047689713864
F         4.83018805950311      -2.87610430181027      -4.33083311045741
