32
C10H18N2O2 optimized with ForceField in AMS.
H         0.51977441099977      -0.42116222922804      -4.91688521011289
H        -1.15492615581479      -0.60360366298465      -4.26257136294747
H        -0.00755376539346      -1.99722650676719      -4.19786433608764
C        -0.09180529980586      -0.89299463681288      -4.11971509093231
H         2.48744918069238      -0.10223719547867      -0.35270963885831
H         2.42427796011524      -1.16888837162015      -2.80319191793856
H        -1.34881936520592       0.50841198791361      -1.97779766368304
N         0.38509242949216      -0.45728949407571      -2.81368797766903
C        -0.31422814214794       0.20572047655645      -1.87260165002006
N         0.43582160298421       0.42740202529624      -0.77559551376237
C         1.64632083726400      -0.10834585061723      -1.03345292938189
C         1.61435802667103      -0.65742641420868      -2.29945802046498
C         0.01646054428371       1.09988224327779       0.45109393730719
H         0.79012100131835       1.84131216799890       0.74778540526592
H        -0.93449659920703       1.64838513384920       0.27043985850476
C        -0.19429578463000       0.07565393419301       1.56943871288054
H         0.75717335834419      -0.46922777978551       1.75530639730699
H        -0.96378986972157      -0.65906229423666       1.24462752465047
C        -0.65195920361888       0.75816701415634       2.86272215922200
H         0.12986827623595       1.46999462276547       3.20615467062236
H        -1.58881797843703       1.32713779725301       2.67659241839817
C        -0.90925669809700      -0.26518969339952       3.96478434411198
H         0.01712683624082      -0.83724049633933       4.18484883433920
H        -1.71123795488676      -0.96960810041405       3.65688011730771
H        -1.23259450624114       0.25805377818900       4.88923822442104
C         5.67094809524520      -0.39355130537618       0.28355013053948
C         7.05316887549563      -0.24742048273521      -0.27046960231190
O         7.21704335589633      -0.11948325995447      -1.47290762425601
O         8.01948760433243      -0.25460877225358       0.47518518854264
H         5.07503145179595       0.51115678002343       0.04092760372860
H         5.18132608146009      -1.28397511867041      -0.16395385607060
H         5.70190722813992      -0.51774210511434       1.38728664374802
