24
C6H11BF4N2 optimized with ForceField in AMS.
N        -0.52523421061785       0.19370000341943      -0.36446890774525
N         1.65810334671785      -0.07256053175253      -0.04455495237092
C        -1.92501326177687      -0.09620144104349      -0.66416324107232
C         0.50476076204578      -0.67444690450568      -0.39403837040878
C        -0.00658563131911       1.37935883990839       0.01484057581170
C         1.35004604597307       1.21410578414961       0.21065041744121
C        -2.72913697052238      -0.20047744342472       0.62517653204256
C         2.97708750232466      -0.68501943606886       0.05040956319400
H        -2.34532622579387       0.70576295145790      -1.30865821181626
H        -2.00390936867190      -1.05797871708225      -1.21615118652947
H         0.41427613616511      -1.72315647160502      -0.65276997740292
H        -0.57214186756998       2.29418409164616       0.14125093893443
H         2.05703892574195       1.97372376036313       0.52019513848950
H        -2.31287510224480      -1.01214174207908       1.25690159335547
H        -3.78849876408345      -0.43516243920106       0.39035483547374
H        -2.68772130848326       0.75710545415018       1.18576911467690
H         2.91975345531424      -1.77087134682891      -0.17653263104291
H         3.66568825896068      -0.20220104124665      -0.67400745257199
H         3.37727883417035      -0.55508322286926       1.07783893574771
B        -2.07437560720386      -2.01959140797607       4.56759250975472
F        -0.75554275535335      -2.11034389619385       4.04782278981148
F        -3.01080921272584      -2.09690862318724       3.50359932122355
F        -2.23133566830320      -0.78246370332203       5.24718652118892
F        -2.30193119574396      -3.08982691260811       5.47280278141493
