44
C14H23F3N2O2 optimized with DFTB in AMS.
N         1.48020616343593       1.32901803342736      -0.28228493704993
N        -0.50754044435922       1.47652470340618       0.52888860806317
C         2.59716014814977       1.24046001066436      -1.21765292904432
C         3.29515850955876      -0.11238116991675      -1.07909020963974
C        -1.96011732174034       1.47800895058647       0.62438033589985
C         2.33293936455944      -1.28176544829081      -1.30249832321331
C        -2.46931565932187       0.06529132961721       0.93010371228631
C         0.19598050963435       1.42134469634261      -0.60766474341296
C         1.61049017047524       1.31566497201833       1.07668060876189
C         0.35684513777150       1.40636226998561       1.59180597861000
C         3.04910710218653      -2.62695109164420      -1.14770913212683
C        -2.12850760198399      -0.92802643678786      -0.18535393700951
C         2.08197728472028      -3.79433362103840      -1.33675331333715
C        -2.64462677995713      -2.32740460830071       0.14275985506061
H         3.28700855205792       2.05164496859878      -0.95543144921945
H         2.20242656548353       1.38993287314692      -2.22618001404658
H         4.10173513796324      -0.14543633918103      -1.81628599560593
H         3.74488843765691      -0.17558559566802      -0.08392803854432
H        -2.24757801358904       2.16650890587670       1.42335368655728
H        -2.36359397236957       1.84166972534414      -0.32446756165793
H         1.89205795499713      -1.21180203452609      -2.30419896007800
H         1.51349919571523      -1.22513987408652      -0.57593802879627
H        -3.55405975086871       0.12075158128782       1.05806225843333
H        -2.03399138662387      -0.27473282292610       1.87444414929151
H        -0.20903509275231       1.46460382150951      -1.60373083404434
H         2.58901524743890       1.24074955407396       1.54016895975681
H         0.01015053449035       1.43742159581571       2.60947536693061
H         3.49945471158281      -2.68402062380001      -0.15177431018678
H         3.85533883688237      -2.69738626911100      -1.88497313673021
H        -2.57048761909297      -0.58385300345440      -1.12659768607363
H        -1.04216484420049      -0.96639478536848      -0.31977156974819
H         1.63591329335272      -3.76546665695748      -2.33215256932923
H         1.28087486264793      -3.75119103393794      -0.59683569145163
H         2.61096613754174      -4.74026833742622      -1.22057626345565
H        -2.19619534214265      -2.69156941166319       1.06761023383734
H        -2.38746012120540      -3.01465052230539      -0.66285893784716
H        -3.72861206926557      -2.31808759546386       0.26084900811172
C         4.65057153110743       2.37923355138096       1.32855620812471
O         3.93579191228158       3.13407012834723       0.66745938114037
O         4.50815671037463       1.17998079246030       1.59155597833334
C         5.94958683053501       3.05812417281282       1.97617227105692
F         5.69849958857468       3.47169135409493       3.23582013247166
F         6.36594174764336       4.13396355407595       1.28999088166450
F         6.98987030855387       2.21161574088063       2.04496933465707
