27
C7H13BF4N2 optimized with ADF in AMS.
N         1.15164126730455       0.39650766242902      -0.59294275274432
N        -1.01210359905930       0.24680465702410      -0.54682664612011
C         0.09093039555778      -0.17359456721071      -1.17670857330770
C         2.55316762571436       0.03882643412176      -0.87417705888958
C        -2.36073483005589      -0.30463588820668      -0.76734931911558
C         0.71591607794810       1.18611310603699       0.45293420759659
C        -0.64490666790735       1.09196452569633       0.48237211397305
C         3.09694263548745      -0.86425370392180       0.22149231492555
C        -2.72443800671573      -1.26795640973486       0.35176290629479
H         0.12589135870839      -0.91940670406335      -1.96538720364910
H         2.54856506669549      -0.48775307436763      -1.83821724746127
H         3.11749608511970       0.97958118601089      -0.97660190159567
H        -3.05533635648472       0.54731630553461      -0.84609967371668
H        -2.32395779880270      -0.83172848981025      -1.73062734649007
H         1.40453163492117       1.73821978477588       1.08035427232715
H        -1.37504752810321       1.54705844748680       1.13984797684842
H         3.11173569056650      -0.34978701807389       1.19425636168963
H         4.12456554842144      -1.16513170450287      -0.02939467620064
H         2.46629073202114      -1.76117992240775       0.29466752695014
H        -1.96732604413150      -2.06350687749957       0.40109671017874
H        -3.70624375957134      -1.71732969420063       0.14397999389924
H        -2.77480600202078      -0.75344869284661       1.32332985318669
B         0.31370380593033      -3.22626403974422      -1.16100087087098
F         0.42662006177973      -4.60366904398640      -1.02457618668826
F         0.28931737911838      -2.58129978911708       0.12613920196865
F        -0.89109616113652      -2.85601884021770      -1.85489645195140
F         1.41749525939454      -2.67338621670437      -1.90123089423726
