45
C11H20F6N2O4S2 optimized with DFTB in AMS.
N        -1.53455629668347       0.54805349646802       0.33307577157914
C        -2.58127321981922       1.62684768564829       0.26310080990401
C        -2.09415619266189      -0.67574772517640       0.99976890688900
C        -1.15360850450019       0.24039871583121      -1.09640391547912
C        -3.21138873011425       1.94540731943701       1.61124078100513
C        -2.73952462859523      -0.38105779697651       2.34724655790659
C        -3.82613788711945       0.68172423163265       2.20754491165852
C        -0.33528315381011       1.03766552854705       1.06019365809233
C        -0.26040012183416      -0.97872386193145      -1.30286378857626
C        -0.00496779834541      -1.13432241030886      -2.80286366372495
H        -3.35856980991124       1.26659435871451      -0.41363304523937
H        -2.10744371374378       2.50835612170755      -0.17364786544416
H        -1.27515584944053      -1.38658418700167       1.12140210584181
H        -2.83476460367583      -1.09657411172597       0.32003021558685
H        -0.67035473545419       1.14005346016986      -1.48655997523038
H        -2.08352220864714       0.08927245318491      -1.64675608823953
H        -3.98946858071471       2.69209147861204       1.43400970256929
H        -2.48010738607256       2.37868762912494       2.30021641227979
H        -1.99095008669022      -0.06160197947651       3.07904181975964
H        -3.17616941976031      -1.31731557827372       2.70448417861057
H        -4.26223619626470       0.90080683298912       3.18465970744016
H        -4.61690306680059       0.31499031947533       1.54646827976121
H         0.41764821871115       0.25263705957184       1.07302630495843
H         0.05351690518271       1.91537681680798       0.54701067647978
H        -0.60336306708088       1.29924134187951       2.08049382411397
H         0.68920766416035      -0.86969410077374      -0.77070624376874
H        -0.76352943182410      -1.87858270860443      -0.94274867301288
H        -0.95178831356045      -1.25337177705781      -3.33045347577352
H         0.51182630586710      -0.26024563906006      -3.20023004706396
H         0.60881405451876      -2.01647387477652      -2.97983630493514
N        -3.48011146976675      -0.68386362201484      -3.28398552511195
S        -4.36441425744841       0.42454112676359      -4.05466230645581
S        -4.13352105563276      -1.35405867594846      -1.98677419639295
C        -4.06395028276273       2.04512996840738      -3.15037175340919
C        -5.63311221258393      -2.39589375787070      -2.44287623326096
O        -3.73966337869689       0.64580762129210      -5.32666758020518
O        -5.78586073765071       0.21995084954431      -3.98575702004320
O        -4.62313205625821      -0.40722489631079      -0.98917001499536
O        -3.15769955396564      -2.31387169801373      -1.50588308607772
F        -4.25827968043392       3.06731119533283      -3.96047118802004
F        -2.79011919253017       2.09034230089499      -2.72204869834619
F        -4.84138722772039       2.18712258067790      -2.08728623887594
F        -5.60561821350844      -3.48869681018187      -1.69487363151754
F        -5.57922803755182      -2.74355201851908      -3.71275477836904
F        -6.74758756650464      -1.74213148531182      -2.20061254146711
