40
C12H25NO2 optimized with ADF in AMS.
N        -0.58614942421307      -0.15050666601856      -0.28655742691079
C        -1.26935030241295       0.12014964443309      -1.62006339417897
C        -0.91494679760630      -1.57410518250263       0.14058327682519
C         0.90347311490778      -0.03007667996832      -0.51598285267799
C        -2.76414760099178      -0.13893337222139      -1.59063784905541
C        -2.40515670472372      -1.84608052365507       0.18934669616320
C        -1.07751637344924       0.82541432034214       0.77893360628234
C        -3.05591417203644      -1.57615730558351      -1.16410815235681
C         1.77247485485964      -0.26505402677583       0.70826317514026
C        -0.59118324367571       2.24672954830786       0.59449307450775
C         3.23514593981313       0.02480735359640       0.37540483555954
H        -0.76535520526673      -0.54495033883856      -2.34224981767852
H        -1.03335642323521       1.16019980576070      -1.88750136231159
H        -0.45459793472029      -1.71856414811087       1.12726715033165
H        -0.40443966618385      -2.22172268941558      -0.59402541830768
H         1.07274610354321       0.97945503692504      -0.92037736840199
H         1.15590180721391      -0.75194403991474      -1.30966395354089
H        -3.14480830920997       0.06281055991411      -2.60659821458741
H        -3.27213497522632       0.55224373689921      -0.88983462337825
H        -2.87866808830451      -1.23249719291842       0.98986250730934
H        -2.52601242788942      -2.90297278622967       0.48307986318561
H        -2.19132650404622       0.82742222991484       0.76663795521861
H        -0.77073133473273       0.40462624547373       1.74635438105066
H        -4.14374484939987      -1.72616727830392      -1.08942100589112
H        -2.67293656643951      -2.28457815175293      -1.92546627761609
H         1.44772967835265       0.38189378522612       1.53800102833260
H         1.67535364925036      -1.30676067014710       1.05221067949259
H        -1.12085868505289       2.85134405363664       1.34592679550750
H         0.49129943882691       2.38344870489062       0.74172875189963
H        -0.87473676624044       2.66131365208376      -0.38434564573064
H         3.87301814807612      -0.16563319294169       1.24993508403679
H         3.59278665017262      -0.61126793630049      -0.44952701224151
H         3.37419124301639       1.07578402376648       0.07774150365979
C        -5.52094528267196       1.32525118386786       2.68536316929974
C        -4.27482552360042       0.81064787145229       1.95014855018631
O        -3.98359790613234       1.41222919431832       0.86154045029950
O        -3.64640625466767      -0.15819778477049       2.46637482739749
H        -5.49497729695365       2.42310188244988       2.75562066691937
H        -6.41759469301873       1.06161502693048       2.10182442017416
H        -5.60304159573076       0.88183812468020       3.68701975298603
