25
C7H10F6NP optimized with DFTB in AMS.
N         0.13102368934994      -0.55721021840071      -0.37255842631639
C         1.55681792828692      -0.65913883916099      -0.72628990729503
C        -0.32117974341692       0.57193527991861       0.20299062646874
C        -0.67120169117499      -1.61480011762447      -0.53812346797922
C         2.41822078882802      -0.68842980452680       0.53213141625635
C        -1.62485700771215       0.66315014566907       0.63256259939149
C        -1.99025880831980      -1.57329382924399      -0.12136908266985
C        -2.47824720635619      -0.42736123653773       0.47932641585986
H         1.69211958006851      -1.58118544998757      -1.29401067791684
H         1.80784344841287       0.20006550522569      -1.35540699692956
H         0.38373919448276       1.38758242736759       0.30875050458549
H        -0.24308730117974      -2.50220981626716      -0.98445523346924
H         2.29319108364685       0.22512170843672       1.11217854716852
H         3.46106642975412      -0.77914886575848       0.23186215240548
H         2.15290058604554      -1.54474287393479       1.14924933070514
H        -1.96733276164457       1.57833966730991       1.09849680899640
H        -2.59800769428004      -2.46101762559076      -0.23886918517390
H        -3.50060494970131      -0.37557100046363       0.83318672675330
P         0.59304635889628      -4.05817186554221       1.35351849031925
F         1.02080694096951      -5.57920184050671       0.98948061702223
F         1.37133855840133      -3.50531638764031      -0.03880949477566
F        -0.80102588254939      -4.20818383131549       0.44963439053876
F         0.14791726075970      -2.45791713472800       1.66148604244668
F        -0.20126592269431      -4.53016837150357       2.68998242165343
F         1.97280897832706      -3.80817779879421       2.19452588895455
