23
C7H10BF4N optimized with DFTB in AMS.
N         0.74280688803033      -0.37615306014017      -0.68147170215934
C         2.03580690373064      -1.06764009011062      -0.79710524568942
C         0.54245376107115       0.75589678191972      -1.36972668292465
C        -0.16299877747675      -0.81708723947921       0.21464534338727
C         2.89093220962668      -0.76960916257942       0.42980158465911
C        -0.63874123727496       1.47246312809524      -1.21406992121885
C        -1.33656613622498      -0.13354749520025       0.41285701376093
C        -1.58236389655993       1.03842779161910      -0.30846353037813
H         1.84227612987393      -2.13961123767999      -0.89738326169255
H         2.53319157213272      -0.69479212103531      -1.69441290871215
H         1.28685784071610       1.03318866134890      -2.10397997043971
H         0.07821153672215      -1.72803245994913       0.74914484774914
H         3.04884619834199       0.30426003085419       0.51243482462500
H         3.85404864895515      -1.26383771185208       0.31247890869034
H         2.41031154436053      -1.13406547116062       1.33742229822620
H        -0.76233911332125       2.38528021717552      -1.78218188122029
H        -2.05531500092475      -0.50551184803214       1.13169386058764
H        -2.50274702905982       1.58832933075779      -0.15372208262861
B         2.71656905637970       2.55545300386156      -1.14004289805207
F         1.84289358911446       2.04438293521572      -0.09648552498259
F         3.61743596311717       3.42664485971789      -0.61454063895292
F         1.88145202983965       3.12265186031619      -2.10366987422067
F         3.33526121633010       1.40767436143712      -1.69109859931369
