33
C9H15F3N2O3S optimized with DFTB in AMS.
N        -0.71221111587475      -1.17157076083066      -0.03859841080284
N         1.36973564586411      -0.62806237875357       0.06189585384551
C        -2.15496318980308      -1.18752807859809       0.19793875922733
C        -2.84218082288030      -0.13730653597021      -0.67633130845777
C         0.16901599217314      -0.42109014904971       0.61413807003806
C        -0.07664451115815      -1.85704162366367      -1.03381704078561
C         2.60030659847534       0.05565585648604       0.43667053346774
C         1.23672652766566      -1.51509269334910      -0.97442942002463
C        -2.45040720821363       1.29036714336664      -0.30886221753188
C         2.75366263446277       1.33260985885756      -0.38478990104337
H        -2.32442633246846      -0.99303429674191       1.26043280161862
H        -2.51956087952824      -2.18455046922160      -0.06133758428868
H        -2.60631652983348      -0.33713257972598      -1.72334756302339
H        -3.91830207750374      -0.27525303823634      -0.55040410064505
H        -0.03510659356927       0.21474769434630       1.45809568757588
H        -0.61188127901025      -2.54273580458479      -1.67295926583082
H         2.55319251060497       0.28373617201886       1.50494581161751
H         3.43467078264437      -0.62608460467094       0.25289672766967
H         2.07681381538154      -1.83000522466047      -1.56789872741318
H        -1.38254501963376       1.45495323306846      -0.46870083765384
H        -2.68250786065301       1.49955620633260       0.73688537227584
H        -3.00150241919095       1.99236990439575      -0.93358316621498
H         2.78986946994203       1.09625485633297      -1.44748145564983
H         3.67741071394572       1.83441130580979      -0.10128416145259
H         1.91448073557522       2.00288507202602      -0.20197947289455
S        -3.37049182286292      -3.50621215301276      -2.33949516179719
O        -2.18344289965867      -3.81947939640639      -1.54441313389668
O        -4.15288564391261      -2.41104119853094      -1.79252849942885
O        -4.11147800842665      -4.64094420522534      -2.81469748242031
C        -2.61062369747988      -2.74561601718480      -3.85749925883524
F        -1.83116205311617      -3.60070914163462      -4.51178871261653
F        -1.82276750501557      -1.71402035068837      -3.47349142152698
F        -3.50792886004132      -2.26250685650073      -4.70353291090142
