34
C10H18F3NO2 optimized with ADF in AMS.
N         0.10056977107362       0.14354207865542       0.15084498713480
C         0.94099888931768      -0.84662808695076      -0.66201232055268
C         1.12068735730551       1.05835631804830       0.86325146859307
C         2.34725858293993      -0.26752501236346      -0.67339022506752
C         2.44822765687306       0.34003766410047       0.72687396615111
C        -0.73435318560560      -0.58271957453067       1.19470932415915
C        -0.76493435733563       0.96247676310279      -0.78496594970641
C        -1.80372253176014      -1.47695244930251       0.60335198252582
C        -1.63419354982793       1.98396313220815      -0.07973486506877
H         0.48340824700633      -0.98961512716481      -1.64901399553776
H         0.92616715314162      -1.79911557516066      -0.11485402117390
H         0.73425529191021       1.27008955302629       1.87936284442388
H         1.13734996636948       1.99880340930935       0.29391248472651
H         2.43785481786641       0.51996526542331      -1.44118881470031
H         3.09918052382571      -1.04058742940118      -0.88886222928490
H         2.55386633784824      -0.44586766608725       1.49334096153707
H         3.28967424727454       1.03735859248897       0.84667692206784
H        -0.00976771826274      -1.15635705834714       1.79207672525996
H        -1.13092699239571       0.19892173486775       1.86598968346486
H        -0.05906227440475       1.44200006443425      -1.48139598786961
H        -1.37031469803523       0.24521960037594      -1.35847857696582
H        -2.29266679704726      -2.00928072653410       1.43290227921617
H        -2.58661248731174      -0.90461855921650       0.08518317441643
H        -1.40556303720448      -2.23777626183691      -0.08634765235293
H        -2.06969585185826       2.64935377312167      -0.84023475651607
H        -2.45641271221468       1.51053496543492       0.47301145740716
H        -1.07776707543164       2.58761477125904       0.65124775523184
C        -0.63785642432167       1.86723897909607       4.23952072542987
O        -0.73963233235027       1.81854440279391       2.97191983225810
O        -1.22695186899647       2.54782805469572       5.08257414506577
C         0.45497453042662       0.87145657022462       4.78777036958277
F         1.71636785851922       1.19363556969606       4.31473117683212
F         0.22558138153948      -0.43173782108505       4.36390346542306
F         0.54757298432651       0.82152184351801       6.13837157888926
