60
C16H34F2N2O4S2 optimized with ADF in AMS.
N         1.68000715059891       1.03969744478356       0.94677426105760
C         1.56300189819081       2.46475358505483       0.43286852056350
C         2.55379161086315       1.21608722158331       2.18075439922253
C         0.32470585437724       0.50198479451663       1.36380812448714
C         2.35616541738290       0.16913815959519      -0.09075243240228
C         1.42530337053879       3.33650928499651       1.67788493099510
C         2.09368787354027       2.52714979824727       2.81945449923291
C        -0.61770266156573       0.15874316785591       0.22119418855948
C         2.67500226319532      -1.23538338903631       0.38097444182630
C        -2.00962899138238      -0.20990469764200       0.74505236882430
C         3.29039274441956      -2.04206856842824      -0.76603477971922
C        -2.97629364174752      -0.57852094033933      -0.38071648660715
C         3.90488587664530      -3.35024988168023      -0.27807139233382
C        -4.37182588900544      -0.95089468739758       0.11920958440039
C         4.52932773989051      -4.16782572070850      -1.40579506286965
C        -5.33282658079527      -1.30601040116084      -1.01309570489136
C         5.19813890347012      -5.44237445088775      -0.89894710712919
H         2.50513185004020       2.67549803471955      -0.09063506083572
H         0.72913122524808       2.52531775293169      -0.27759632183108
H         2.44979268355232       0.32940635142577       2.81832241704940
H         3.59073757950868       1.28707337215095       1.81631443886725
H         0.52023846771241      -0.38695194224980       1.98119608645530
H        -0.11859174288779       1.26983364882708       2.01546438147048
H         1.70515332264375       0.16900482587582      -0.97799493400518
H         3.28377498270310       0.69649587801339      -0.35434675831563
H         1.94023607986411       4.29214328878819       1.50660009416576
H         0.37112673473799       3.55593072561713       1.90569350708820
H         1.39011949598757       2.35215223486303       3.64727477583568
H         2.96879259324159       3.05410223857458       3.22260442206840
H        -0.71343471274539       1.01039668646074      -0.47421808448971
H        -0.21922408893705      -0.68982096213254      -0.35850408307677
H         3.40876853932793      -1.18741205868573       1.20334423072476
H         1.77521484893760      -1.75560050489741       0.75532787647147
H        -1.92721784406919      -1.05865916752492       1.44893072438309
H        -2.42507664621199       0.63698050164563       1.32115299521353
H         4.07945498135474      -1.44025962849945      -1.24886526573746
H         2.52097513363888      -2.24372374840486      -1.53481996819410
H        -3.05716165797985       0.27108455206553      -1.08471803276279
H        -2.55961310495095      -1.42369064541748      -0.95983995768907
H         4.68558901770438      -3.10703372078915       0.46442231920108
H         3.13915872884566      -3.95876974802614       0.24128321500542
H        -4.78445509433941      -0.10846915165732       0.70425451303293
H        -4.29147784124447      -1.80436887130705       0.81745954121167
H         3.75318359138264      -4.42164368399445      -2.15210389052257
H         5.27353341112156      -3.53932530044075      -1.92709693942133
H        -5.45617239403426      -0.45943774721521      -1.70792055585317
H        -6.32762012903660      -1.56939196026537      -0.62426024129929
H        -4.96053086822616      -2.16460762180496      -1.59481418551551
H         4.47187663347912      -6.09178790406825      -0.38323613281432
H         5.64361286220572      -6.01956756710114      -1.72299537240735
H         5.99971228644430      -5.20078233044559      -0.18263133668115
N         5.46534963413559       1.47802409273293       0.83353987611782
S         6.29976691586304       0.24375928676065       0.20077292990935
S         5.48872858111627       2.93312885606502       0.16096674758928
F         7.85874591593848       0.66509910613999       0.46529467224694
F         4.56644631153344       2.70128950642844      -1.23201425305564
O         6.06127463619308      -0.89774077250371       1.06497117208708
O         6.18589738517953       0.10540485661769      -1.23979603031897
O         6.75740410662235       3.41567826943089      -0.33445934996760
O         4.61490712688241       3.77726806764415       0.96542069348295
