38
C12H19F3N2O2 optimized with DFTB in AMS.
N         0.56982288582203      -1.67740566025862       0.22044836457296
N         1.44536304509365      -0.34800230569138       1.66980695982389
C        -1.51974471319130      -1.97351213152949      -1.05209981999709
C        -1.89209831637017      -0.49190832858503      -1.13501363526581
C        -0.00292436391263      -2.18855826059116      -1.02170001076297
C        -3.41424322918414      -0.31399789335548      -1.13155910793947
C        -3.79872303405405       1.15392079634570      -0.92821094515745
C         1.09537920121282      -0.46364258351768       0.38975787741116
C         0.53927856401118      -2.32441025985724       1.42272273953790
C        -5.31083037648437       1.30564578819324      -0.77563545978371
C         1.10503131583701      -1.49222512051411       2.33614031608185
C         1.96916552413870       0.85061948396313       2.30095421756985
H        -1.95917330508856      -2.40982712329422      -0.15056184987273
H        -1.90904860764455      -2.51007289146631      -1.92224703465318
H        -1.46008911850452      -0.04955841734485      -2.04071719947772
H        -1.46610048417557       0.02902879521825      -0.27197546919896
H         0.48518833347291      -1.67159817060587      -1.85317113890135
H         0.23296894495925      -3.25468561686932      -1.07629225198491
H        -3.83038910491844      -0.68649758305567      -2.07425471840543
H        -3.84044939250363      -0.90531154068256      -0.31610648094525
H        -3.31279382927765       1.52691932342762      -0.02103439741246
H        -3.44486716014893       1.75331541225550      -1.77524665648902
H         1.23126222800998       0.28179691979421      -0.37402000065751
H         0.10167460445824      -3.29902924746160       1.53827514611446
H         1.24665271561373      -1.59859812649017       3.39647383823507
H        -5.65007485722431       0.75739116530869       0.10364782274240
H        -5.57205642548170       2.35736863604614      -0.65352241826285
H        -5.82941644038401       0.91669834784483      -1.65383533231284
H         2.90667025446670       0.61483398899797       2.80447745759932
H         2.13257113864666       1.61032768987862       1.53936718365939
H         1.23593728509730       1.20382805762897       3.02660246206578
C        -2.52930546706746      -0.64826912612261       2.18307686785294
O        -3.67976235564054      -0.33207438385410       1.96947363239911
O        -1.86193304461018      -1.66317078783359       1.99692927254080
C        -1.60851402197301       0.58453251741276       2.79922241440595
F        -0.67554437016825       0.16822238719205       3.69978346501345
F        -2.27844368506332       1.58012953206851       3.38087151433907
F        -0.87605832806886       1.15739125450490       1.79021149791538
