25
C7H10F6NP optimized with ADF in AMS.
N         0.14739191722002      -0.39125459012559      -0.31321664850538
C         1.60735272195977      -0.60796678229808      -0.53611957572612
C        -0.42781972361905       0.76255784330943      -0.71847871175482
C        -0.59405395958827      -1.38958973308820       0.21267738160902
C         2.34164032733014      -0.93708345518328       0.74946609731194
C        -1.78699306631869       0.95958660586614      -0.58759622243338
C        -1.96056167203550      -1.23046222687178       0.37559482911869
C        -2.56923767471288      -0.05093386689490      -0.02868649492288
H         1.68574414755074      -1.42480080662212      -1.27251472607350
H         1.98231259516382       0.32203810627986      -0.98473498701075
H         0.23684773352173       1.50278369827731      -1.15825359410024
H        -0.06417113799833      -2.31202819091498       0.44608252970375
H         2.19416256691648      -0.15793915364274       1.51256166811686
H         3.41595289285571      -1.00712923824740       0.52225004789750
H         2.03514032515303      -1.91408067386376       1.14653466099515
H        -2.22535974547591       1.89568027900209      -0.93340566952316
H        -2.53565329833737      -2.05922987610454       0.78810798726709
H        -3.64705817647743       0.08072423953785       0.07393626239325
P         0.54502625653224      -4.06547876441773      -2.02089668775954
F        -0.67933172772099      -4.88344748031137      -1.28806168221361
F         1.51002365194817      -5.38037140139618      -1.99961279289930
F        -0.02563487496810      -4.42802685529590      -3.50525285858855
F         1.76691331317330      -3.14332801784665      -2.67299914856214
F        -0.41417101202877      -2.67163796505672      -1.99990918483157
F         1.12268700525614      -3.63469800729078      -0.47880561610830
