28
C10H15NO2 optimized with DFTB in AMS.
N         0.20577779597774       0.30455097423407      -0.25712843147710
C         1.42997207719695      -0.20795387698577      -0.86453845894673
C         2.57384090219540      -0.32965705448753       0.15207862802831
C         3.80274703105477      -0.96847398102556      -0.49016268808241
C        -0.03223070877686       1.71974881870871      -0.32932571274159
C        -0.51146171857009      -0.50236281402454       0.58394467000167
C        -1.38650543009212       2.09121594725742       0.18251387262218
C        -1.66467954745913      -0.09563616066208       1.15687688785600
C        -2.12530942269017       1.23827993323791       0.90843979009633
H         1.21301237690420      -1.19241276484324      -1.29573532276408
H         1.71869731670137       0.46682042272954      -1.67677776935648
H         2.24008713694393      -0.93574875317170       0.99912623830298
H         2.83466311220736       0.66210116071084       0.52867384693617
H         3.55909594384076      -1.94854502179428      -0.90331775419595
H         4.59093945681422      -1.08962769560402       0.25268829912922
H         4.18161710831536      -0.33983990141513      -1.29772028950426
H         0.12557305519349       2.06523622157491      -1.36329619742148
H        -0.13195873756191      -1.51238575334282       0.69411480893413
H        -1.70146864929438       3.10675828264261      -0.02322465245154
H        -2.23659928278036      -0.76434571383943       1.78433296311922
H        -3.09283162600396       1.53804155689290       1.29584868915490
C         2.23447258275738       3.31294086455504       2.20933741934854
C         1.19192164290075       2.33653600857508       1.70317773704291
O         0.60936888681776       1.55973183244464       2.40745670932613
O         1.02196180112285       2.47846395738516       0.38751054143708
H         2.67807243112116       2.93043996130163       3.12554769878240
H         2.99993049773643       3.48308641958574       1.45606360664570
H         1.73506305422709       4.25718141985993       2.42388176117777
