61
C17H24F18NP optimized with ADF in AMS.
N         1.20181059278811       0.47134508685198       0.25403353324214
C        -0.09075640046409      -0.27917653152148       0.01099188167084
C         0.82561176835528       1.39858112888044       1.39235450268074
C         2.28700424933950      -0.48651315077670       0.73196460386121
C        -0.68445174988605      -0.52813558044495       1.39991950920417
C        -0.04969061817269       0.55209184969200       2.31520935431453
C         1.61454288385751       1.23794010088849      -0.98497484855695
C         2.85942133030522      -1.40303953201860      -0.33248041234597
C         2.80803045289837       2.15561236780209      -0.80376474564841
C         3.67933175056528      -2.51176592807709       0.33901235593286
C         3.06040253998183       2.92743717849317      -2.09816379636366
C         4.43406800962733      -3.36026459742312      -0.67873458894212
H        -0.72815469499792       0.39041459163118      -0.58539869928639
H         0.12023694834765      -1.18371815601069      -0.57256114157087
H         1.73676583446183       1.79160606785068       1.85781243459321
H         0.25722766439681       2.22545940581356       0.93899949800177
H         1.82897247893327      -1.07150623911867       1.54292516500046
H         3.08335359751971       0.13125737254910       1.16134454629781
H        -1.77978770908640      -0.44516563444209       1.35764065825013
H        -0.45039204528819      -1.53994206325501       1.76003808042243
H         0.55301053044575       0.09160396627072       3.11073295925188
H        -0.80493025451994       1.18315742213016       2.80401112030820
H         1.80348383476469       0.48634595421367      -1.76614139991525
H         0.72232146612875       1.81513089089947      -1.27878918159898
H         2.06647522249198      -1.86439051253580      -0.94853460416706
H         3.52353316085882      -0.83215253089756      -1.00066063584701
H         2.61711323986277       2.87103653240887       0.01155024617287
H         3.70958191872536       1.59058024214174      -0.52819372467654
H         4.40116057105296      -2.05122867966977       1.03171828859878
H         3.00317332872719      -3.14639897111066       0.94160779512800
H         3.30337486358455       2.24656991726941      -2.92785236352280
H         2.18431257408295       3.53024077735392      -2.38713358064461
H         3.91642705830798       3.60226128895779      -1.96504919041882
H         5.00603609303572      -4.15257267761077      -0.17383224255635
H         3.74664435585376      -3.83659347331116      -1.39658713746736
H         5.14909231580848      -2.73883493399910      -1.23732305966626
P         6.73167226617952       1.00518153151976       0.80191964380268
F         6.10932054312189       2.42589727257324       0.16643430595824
F         5.16813871440142       0.33506913021924       0.72118055718261
F         8.26702151154513       1.61556003812074       0.90925806696115
C         7.09760659629360       0.46228664341560      -1.07499003304278
C         6.33009132326945       1.83126222030739       2.57292060808440
C         7.28528107594176      -0.77097453500685       1.54929597798603
C         7.26025897800058       1.58895088015781      -2.14838082831121
C         4.85335907587155       1.90929551799274       3.06561460577998
C         8.74741109686645      -1.04113229264623       2.02701739409623
F         6.09351569548931      -0.34881995432100      -1.59320451958812
F         8.26887567745752      -0.24979592743612      -1.15082011084687
F         6.74536090961402       3.14603649288402       2.53394876836266
F         7.01326494502127       1.24952352664221       3.61549792507194
F         7.02603238969522      -1.75910436025112       0.61574883277587
F         6.47983555410970      -1.07348080319985       2.63223727091764
F         7.73432544090505       1.03250539468932      -3.30238993003500
F         8.12933079689968       2.54507439604255      -1.76609009291809
F         6.07128586736132       2.17133381012625      -2.45859052378953
F         4.78540769709047       2.60287096799106       4.23311829459248
F         4.04798707922529       2.55573305309297       2.17166039158363
F         4.30654237859588       0.68578743977341       3.29849041793300
F         8.80831941537078      -2.30283252211328       2.55282478936588
F         9.14358044301696      -0.17864802712610       2.98701685026976
F         9.63059605016207      -0.98310069802297       1.00781799857079
