61
C19H39NO2 optimized with ForceField in AMS.
N        -0.52624356011704       1.78221104178980      -0.20112365199044
C        -1.39083245207798       2.31798340798394      -1.30318024652140
C        -0.20612154203639       2.90169164668163       0.74520452752462
C        -1.20191630740262       0.66730533886591       0.55146276192199
C         0.75118456918417       1.32026735290503      -0.84646834013874
C        -2.67120723609606       3.01613075759988      -0.81501243361820
C        -1.44607006367405       3.64492192708364       1.28277353416128
C        -2.32745844807292       4.15004684545414       0.14504729389391
C        -1.51089144440333      -0.61005707867664      -0.26815384168361
C         1.77849302490150       0.64495240564203       0.09614829257681
C        -2.18705913849429      -1.66679724731803       0.61627766730300
C         3.05200539252650       0.26918679599333      -0.67345923529919
C        -2.48233089316954      -2.94685003888950      -0.17509738472440
C         4.05945768098791      -0.44161467504901       0.23840472487146
C        -3.18339067394990      -3.98788459626811       0.70544893040208
C         5.33484411236283      -0.80873199366221      -0.52884498887308
C        -3.46120798069856      -5.27118583349642      -0.07198395321233
C         6.32460156147992      -1.54471690476588       0.36934503949716
H        -0.82390031299114       3.06896183674160      -1.90237029989171
H        -1.66977622272883       1.52474269607835      -2.02703280302706
H         0.35236703335382       2.52914033634999       1.63048326416805
H         0.44619950097483       3.65736602808786       0.24944188023813
H        -0.59007717003856       0.37674634482443       1.43361134752495
H        -2.16072877410085       1.00872883070422       0.98699322052873
H         0.53154995626129       0.61751156903724      -1.68114180743118
H         1.26299681995594       2.18424308123236      -1.33104975890424
H        -3.20546321190305       3.44182417589200      -1.69182469026590
H        -3.36581927730941       2.29572663360441      -0.33618429577758
H        -2.03495050562492       2.99560127885615       1.96354265692837
H        -1.10970369269102       4.51570524983183       1.88618068927853
H        -3.26330645009508       4.57972293680742       0.56266852364551
H        -1.79441863573908       4.95581982685480      -0.40654100919822
H        -2.19840526478505      -0.37719143629163      -1.10606893225743
H        -0.57970192128277      -1.04970692862846      -0.67941036476533
H         1.35486477402439      -0.28241447891316       0.53316372438220
H         2.06344309229133       1.33084392924245       0.91944468370614
H        -3.13984610087125      -1.25475080800380       1.01671980479999
H        -1.52087946631578      -1.91200218131595       1.47291307215917
H         3.51708307366225       1.19141572943803      -1.08708476198475
H         2.78634917226728      -0.40279060037405      -1.51946786759910
H        -3.13356677121777      -2.70228554012614      -1.04331309402137
H        -1.52713403518459      -3.37025849664259      -0.55722481816184
H         4.32179877604304       0.22622248456157       1.08870709077209
H         3.59591104722481      -1.36762436201253       0.64514077981611
H        -2.54401168070281      -4.23048683083477       1.58222975061445
H        -4.14781758913565      -3.57673847892512       1.07613786854332
H         5.08035182809845      -1.46149760245410      -1.39223977459289
H         5.81771483712157       0.11400570928928      -0.91740709770370
H        -3.97343691261971      -6.00197089542415       0.58881052679725
H        -2.50939325094129      -5.72030262500489      -0.42772460451573
H        -4.11652378983479      -5.06026715933664      -0.94393466865927
H         6.58726530560009      -0.92023698135901       1.24952684838502
H         5.88668943448339      -2.50334328913835       0.72026934783713
H         7.25147017209480      -1.76459596274951      -0.20131283052448
C         8.65849267521098       1.82744509853166       0.93958120330921
C         7.65372609574645       2.89084639796326       0.62635372147935
O         7.91939613923868       4.06201188215971       0.84234821382579
O         6.56780065105983       2.59301025921808       0.15517646511256
H         9.58752433992990       2.00863836477393       0.35943251378486
H         8.89587204967818       1.84578260840265       2.02412106061712
H         8.26371523794192       0.82422070027800       0.67518443953683
