40
C12H26ClN optimized with ADF in AMS.
N        -1.64236063326537      -0.26840492802107      -0.14436524988678
C        -1.91982088461920       1.14543163278923       0.35490196834235
C        -2.66033313136559      -1.22784550864006       0.43336542769141
C        -0.27847093814244      -0.71660741090912       0.35239060652769
C        -3.34719755856392       1.57361501991884       0.07775089966699
C        -4.09946312274717      -0.81371805431367       0.16988014806395
C        -4.36910400144383       0.60587967460496       0.66756363087632
C        -1.66348660769234      -0.30419530302266      -1.64835380018718
C         0.90197790756630       0.08631124683973      -0.15465334969681
C         2.20180653778635      -0.46591130420972       0.42860040981431
C         3.41745256412279       0.31811593646620      -0.06187846278127
C         4.73375000245038      -0.20454329981391       0.50638829724864
C         5.94222318708962       0.58386282863268       0.00819582314752
H        -1.21583842337924       1.81329461598929      -0.19853195995019
H        -1.70981692928602       1.12232677486100       1.43745138335675
H        -2.46684288263920      -1.25475727766771       1.51835525417556
H        -2.43541934211523      -2.21997406653123       0.01159108796629
H        -0.33627800672421      -0.67522050911331       1.45251023345031
H        -0.18964735363075      -1.77593116335941       0.05717695497316
H        -3.46364170776011       2.58353045876159       0.50368485029282
H        -3.48492739964696       1.69576277735855      -1.01009136072730
H        -4.33053033938177      -0.89321251106690      -0.90521858748687
H        -4.74788427574161      -1.54500633556408       0.68093509087890
H        -4.29630093693805       0.62288606611634       1.77123860612655
H        -5.39583186135201       0.90951316812499       0.40701192703884
H        -1.07153031498747       0.56903118219765      -2.01735426145962
H        -1.25605692666586      -1.27286587172707      -1.96856346841653
H        -2.69709639565902      -0.20203713192659      -1.99106351325156
H         0.94711745700150       0.06772276400554      -1.25405026763430
H         0.79239013172765       1.15243585306105       0.09569832565307
H         2.16611872674037      -0.42986936216700       1.53416375004462
H         2.31907984065020      -1.53157680417557       0.15324970902179
H         3.29267655471608       1.38359970493854       0.20300579144808
H         3.44932085589468       0.28486495233106      -1.16616237604581
H         4.84907311570042      -1.27081979880935       0.23756771779001
H         4.69418982992868      -0.16564875069535       1.61070388403881
H         6.01671961487437       0.53485571058153      -1.08980197360920
H         5.85889826975320       1.64621818349156       0.28757134192624
H         6.88096988857356       0.19351827736333       0.43065202976719
Cl       -0.28079323182875       2.64730016690012      -2.01069517939472
