67
C19H28F18NP optimized with ForceField in AMS.
N        -0.69301616189623       0.52642930586975      -0.20535164698053
C        -1.66558830476837       0.28168138627843      -1.32018701352448
C        -1.24260894272217       1.60350011001985       0.68284852180076
C         0.57219403030775       1.03123055467909      -0.84366675030804
C        -0.44741559454147      -0.71710406751986       0.60753919485498
C        -3.08929427875688      -0.06054725775891      -0.84931403880925
C        -2.66794237034362       1.32422774656870       1.20180690932035
C        -3.63228571840326       1.04223578700717       0.05371695910392
C         1.76321143089935       1.26981281864957       0.11767769506149
C         0.21932531435881      -1.89338966375476      -0.14723022020549
C         2.98062235044737       1.80501392097941      -0.64726421509110
C         0.45118433051507      -3.07897168168598       0.79866722046081
C         4.16764473457874       2.01769409095594       0.28820728464161
C         1.10893663525078      -4.24795780455421       0.07077524032138
H        -1.31218442274757      -0.51882256341387      -2.00268028033585
H        -1.74931285013143       1.19177375450146      -1.95977700860614
H        -1.27028072502519       2.57813037648639       0.14273029257762
H        -0.59860892671129       1.75173396860380       1.57610631123096
H         0.37241068369866       1.99375773052818      -1.36991768041658
H         0.90630338906657       0.33642213960948      -1.64624155371704
H        -1.39250887942984      -1.10520349958532       1.03374989438480
H         0.17209010950736      -0.47500340179380       1.49874453644703
H        -3.11844438146335      -1.04057373620084      -0.33024444877956
H        -3.75006922009670      -0.15052912945909      -1.73845966078308
H        -3.02843057991299       2.21592470191964       1.75902385082482
H        -2.67085612193756       0.47850728710569       1.92045432537344
H        -3.78121072932375       1.97028701993137      -0.54137122040673
H        -4.61845158285448       0.73479914109991       0.46358577004236
H         2.06177914593926       0.32342517277963       0.61276636815983
H         1.49115493099087       2.01126153962737       0.89617357685974
H         1.20152037734667      -1.59133535980282      -0.56329190077708
H        -0.43150958488849      -2.23861613760165      -0.97593413472630
H         2.72519156155958       2.77366259071380      -1.12987629272406
H         3.27467488046083       1.08325239555951      -1.44059562195375
H        -0.52030333564021      -3.41959569485411       1.21906987950931
H         1.10798423372286      -2.76573489361545       1.63944196978168
H         4.46424436931927       1.05659392235601       0.75961680906395
H         3.90811888533455       2.75132655499298       1.08085930651502
H         5.03071732444208       2.40953435181864      -0.28772706004506
H         2.09814831907095      -3.94358519237191      -0.33287418732040
H         0.46315510996039      -4.59585421314152      -0.76340986529999
H         1.25816493815621      -5.08992668015174       0.77913353499197
P         7.45491563493497       0.74412014854562      -4.41900078811480
F         6.23556209425599       0.93589314809008      -3.21787353787538
F         6.79377910386780       0.81154283995324      -6.00954784864023
F         8.35779816606060       0.95267116077008      -2.96899994471195
C         7.03953579922560       2.62596160738269      -4.63063194300023
C         6.58088429443415      -0.97588559324141      -4.24746413112410
C         9.23224262400195       0.25586132341228      -4.99925505346431
C         7.26235054742127       3.54873239005942      -3.40371793865020
C         7.01026855946907      -2.08763014984034      -5.22959880191912
C        10.25963407313353       1.39026721353244      -5.17404574047341
F         5.69968485476493       2.75517008035530      -4.97588528929725
F         7.77212488484315       3.14992429399092      -5.67726214259852
F         5.21009242412924      -0.81992008695857      -4.43198294626977
F         6.79385965716340      -1.46357423254126      -2.96555537159345
F         9.13995276377355      -0.35872089827110      -6.23507758096485
F         9.77376631696030      -0.66724037694729      -4.11545225474448
F         7.02589861977720       4.85792353581374      -3.78480581226798
F         8.55246893765420       3.47962273911273      -2.92452578092395
F         6.38592082134784       3.24880893635603      -2.37770455312467
F         6.16884681933766      -3.17412728658033      -5.06464827616456
F         6.90707215207942      -1.67249544510062      -6.54413609207657
F         8.29505011064374      -2.52391567838078      -4.97493327711398
F         9.95032526957242       2.17208793083755      -6.26965894931242
F        11.50349463530242       0.82913342621337      -5.40532025752280
F        10.35882548020649       2.17716636046025      -4.04839416456835
