24
C4H12F6NP optimized with DFTB in AMS.
N         0.33415606671805      -0.14769275778237       0.23085847752266
C        -0.22006041452593      -1.48100420761267       0.59428829034025
C         0.75852644244008       0.56910468870926       1.46501710046067
C        -0.70934835354769       0.64586176570168      -0.46630199075814
C         1.50639302090480      -0.32394156512840      -0.67017603938401
H         0.54545631529275      -2.04601346976949       1.12115326962519
H        -1.08640426153138      -1.33747367447440       1.23669126334707
H        -0.50934112812059      -2.00091469838391      -0.31642536923357
H         1.13396075848649       1.55234299202043       1.18843940884075
H        -0.09963273448261       0.66756439067465       2.12657733707963
H         1.54245420230458      -0.00620575656670       1.95136783817725
H        -0.29573313092704       1.61499346019236      -0.73862946387883
H        -1.02227075684355       0.11182862812272      -1.36153079983701
H        -1.55858100428920       0.77978617410462       0.20109193917320
H         1.90632766173478       0.65603153323225      -0.92193071507246
H         2.25810160339840      -0.91175738721988      -0.14875951184550
H         1.18294102545897      -0.84098789885755      -1.57115612094080
P         3.27535969347561      -2.40193547253515       2.20020226581413
F         3.98134117141529      -1.92833857232075       3.58359278246810
F         3.43021378158688      -0.83652122761257       1.59003413362865
F         4.69999283475940      -2.80112160108205       1.53241219532927
F         2.48966889468269      -2.80783736242621       0.76735125743383
F         3.03673593799674      -3.90705168191958       2.75857749280473
F         1.77343134231247      -1.93715800076627       2.80954889200493
