43
C11H21F2N3O4S2 optimized with ADF in AMS.
N        -0.26674483801493      -1.76221451317233       0.48187997234447
N         1.60414536997789      -1.77204505606795       1.59056129703793
C        -1.56423378319095      -1.32105287319879      -0.05225309614319
C         2.69648667748393      -1.34335839219139       2.48239684933429
C        -1.39515748643834      -0.41575653225383      -1.26806807349487
C         3.59428833930399      -0.29401484703061       1.83573226266978
C         0.42326599639070      -1.15208144240842       1.45686674600513
C         0.50262042305936      -2.78568530582147      -0.02931624786323
C         1.67604176490308      -2.79216630445755       0.66598559067819
C        -0.75219881940616       0.93016729033187      -0.94459986109257
C         2.92126185514872       1.05242896640124       1.59052600656989
C        -0.53564524820586       1.77088731869379      -2.20010399158498
C         3.85503835572026       2.01263389048763       0.85586323104826
H        -2.13060070388161      -2.23129836870342      -0.29869848487325
H        -2.09149801424399      -0.80606775556367       0.76640185637149
H         2.22742844676588      -0.96638981661945       3.40540993270824
H         3.26394629724735      -2.25074944757905       2.73351569408139
H        -2.40050388729438      -0.26292724900714      -1.70024387449154
H        -0.78934555052695      -0.94146174919903      -2.02613414246456
H         3.98913737990390      -0.68936855226156       0.88815705642378
H         4.46040194963359      -0.16353629218251       2.50964711178080
H         0.07988073037288      -0.30988858910276       2.04288648901121
H         0.18536063129830      -3.37402190401024      -0.88136979544761
H         2.57656338019543      -3.38045170878500       0.53381131795248
H        -1.38350590612683       1.47881073488914      -0.21894454063539
H         0.23044129596810       0.75853083171899      -0.47709891043334
H         2.02462796875010       0.90709303486942       0.96594365051127
H         2.59252560004514       1.49133649813776       2.55278187801740
H        -1.48696816739790       1.96438033877815      -2.72110995909872
H         0.13812111943796       1.24893185762019      -2.89656583437336
H        -0.07815748944336       2.74023678331566      -1.95193007517772
H         4.13433262365912       1.58894214923430      -0.12070739502848
H         4.77918704172032       2.18402367046800       1.43059351249261
H         3.37156617165870       2.98687484242663       0.68797360997924
N         3.52245890300080      -2.41472963857022      -2.33981799130384
S         2.40491763279674      -1.27587212895623      -2.36904732263013
S         4.93683630474907      -2.19948366181948      -1.59637568727995
F         2.95906089922902      -0.20389889316124      -3.48948012832167
F         4.60304697558422      -2.89536509463740      -0.08133534306949
O         1.20995064846140      -1.84039889422144      -2.97740091558918
O         2.25500970359001      -0.45727713733691      -1.16953507112445
O         5.28628442168142      -0.83330157703988      -1.24921487272948
O         5.90331614523386      -3.11426842091378      -2.15634175136686
