51
C13H24F6N2O4S2 optimized with DFTB in AMS.
N         1.07555219715121      -0.87780846045042       0.59185572686226
C         0.89949919030953      -1.28591156625888       2.02247193779970
C         1.88242648041307      -1.99892784026418       0.00605221550190
C        -0.22770379259459      -0.75380326714700      -0.14059704136346
C         2.21663370172248      -1.94663056738421       2.41865696157418
C         2.85877710600185      -2.41263516434109       1.10314474909534
C         1.83680054270166       0.39336446614099       0.50710021741771
C        -1.24543685600066       0.15302797583323       0.54382081100994
C        -2.55620936535979       0.12269470498462      -0.25234478344628
C        -3.66307549588727       0.87318066556394       0.49255243055664
C        -4.97774793847415       0.83567298167063      -0.29239527092010
C        -6.10323229320489       1.52135303886367       0.47991511215447
H         0.07500583786533      -1.99963923922286       2.05683097200193
H         0.65590779796143      -0.41284399701526       2.62689623572162
H         2.36312878805601      -1.65933855221981      -0.91194660255620
H         1.19255195011153      -2.81420227332510      -0.21712157760603
H        -0.63949010154357      -1.76038261124717      -0.21165267630935
H         0.00484603334591      -0.39540748474625      -1.14723988594437
H         2.01714225568300      -2.79052426149457       3.07987048732860
H         2.86758402704562      -1.24349702317977       2.94301423374316
H         3.83674055273117      -1.94837620423798       0.95766407898445
H         2.98265889823053      -3.49602794787420       1.08943011920262
H         1.27240935303766       1.18244508351664       0.99928697791999
H         2.79808121919953       0.26999745101488       1.00059946629847
H         1.98950989848342       0.64674407871905      -0.54070085392398
H        -1.44266523347224      -0.21323419382237       1.55375675994115
H        -0.87435826048467       1.17993616381790       0.61317991218428
H        -2.86056258299819      -0.91835944565652      -0.39516324554667
H        -2.39808355963724       0.56860499097707      -1.24007372261719
H        -3.35940524551577       1.91319618534761       0.65659832565404
H        -3.81279701204570       0.40825281380784       1.47271865832601
H        -4.84056513289140       1.33261346030126      -1.25890255718452
H        -5.25311872331475      -0.20582825333608      -0.48688199484963
H        -5.85129306782537       2.56396460375804       0.68039515541450
H        -7.02567736988952       1.49236402247299      -0.10029128908089
H        -6.27521717463860       1.01690194897931       1.43147356740050
N        -1.80189563265534      -5.27460404856281       1.73362033585567
S        -0.26397502643734      -5.19216737414592       2.16384993600109
S        -2.45916389456041      -3.99641154652315       1.04015291996934
C        -0.24800136776864      -4.52640577083055       3.91566845533847
C        -2.06594011758734      -4.13590572202229      -0.78911133746319
O         0.23740540513198      -6.52974460929860       2.29584033786917
O         0.55655185900756      -4.22797556466264       1.44112444997035
O        -1.89720646390831      -2.70021466122870       1.39768689408250
O        -3.88524504735506      -4.14109205033338       1.09239506439888
F         0.98872896773521      -4.62277055719129       4.39456458682060
F        -1.06804452279007      -5.19808841283405       4.69916607485586
F        -0.58967694930858      -3.24058355925285       3.93548363676648
F        -2.79434831342589      -3.24524580899986      -1.45356069206797
F        -2.32542816617642      -5.34101768519945      -1.25491243882491
F        -0.78082718947394      -3.85544428176039      -1.02475073941712
