37
C11H24ClN optimized with DFTB in AMS.
N        -1.33202294023175      -0.04478732254821       0.10828632427557
C        -1.63030193001446      -1.29725775051670      -0.66366305649706
C        -2.35817240682577      -0.06239488778223       1.19918676525965
C         0.04377135754826      -0.09189937493125       0.70352952969274
C        -3.14998168451508      -1.39751445646951      -0.68131061544549
C        -3.62779639661089      -0.61955562279617       0.55611624626240
C        -1.53196533275024       1.14896017374459      -0.78831187522283
C         1.16890460963533      -0.12794571571916      -0.32728829033064
C        -1.13315646323373       2.47779200203062      -0.16908382317358
C         2.51799315185121      -0.24754219034133       0.38750971782394
C         3.66225846884000      -0.28482348772054      -0.63085433428271
C         5.01832199758463      -0.40642103988374       0.06082285746024
H        -1.18663457194074      -1.21815520882327      -1.66362559907225
H        -1.18684358173039      -2.13376407866310      -0.11882404136698
H        -1.99577988498356      -0.72805837596366       1.98592777973488
H        -2.48185223979279       0.93922999518189       1.60978752396711
H         0.14275376848652       0.77798163195247       1.35823293845555
H         0.08224383917120      -0.99141859151167       1.32532736341461
H        -3.55535902391598      -0.95730675481875      -1.59420773535708
H        -3.45949653149769      -2.44296520115684      -0.64262931118146
H        -4.14940863815903      -1.26728058766125       1.26293674037926
H        -4.30608761909246       0.18737927420591       0.27231572295048
H        -2.59116463586878       1.16602133659838      -1.05198757082409
H        -0.95417627217445       0.95973609243265      -1.70289700180370
H         1.16010332625281       0.77746678906569      -0.93634241544534
H         1.03469947278405      -0.97555368153105      -1.00145353768709
H        -1.62488004111743       2.65728035446649       0.78716960919769
H        -0.05581599891900       2.55231289833282      -0.03242167485103
H        -1.43856164306645       3.26184771131888      -0.86171831409905
H         2.53387138505929      -1.16105287887344       0.99282009825774
H         2.65377842051482       0.60400693996815       1.06424768601741
H         3.51796285247951      -1.13431246794827      -1.30531267332915
H         3.63969503669085       0.62843198189929      -1.23351899105130
H         5.81418015477223      -0.43117600634448      -0.68351256436592
H         5.18890217061377       0.44344093299480       0.72361866700405
H         5.06689818169724      -1.32237818596198       0.65174336074660
Cl       -0.11810699094105      -0.27862799352605      -3.29441817591319
