40
C12H8F18NP optimized with ForceField in AMS.
N        -0.73700171986335      -0.07528666839959      -0.01332775022499
C        -0.08551144541233       1.12685965231907       0.04082171782423
C        -0.03626517590984      -1.23834955883090      -0.17138846004240
C        -2.19679278343175      -0.13372936507260       0.09023561922286
C         1.30651711651098       1.18297468173204      -0.06479412203025
C         1.35665008638124      -1.21817143686620      -0.27657030070095
C         2.02940780758899       0.00155025004176      -0.22272578395376
H        -0.63750333929798       2.05136636146946       0.16090014025612
H        -0.55369853265763      -2.18965496835947      -0.21534424110112
H        -2.48729826891069      -0.76253245688198       0.95868461104476
H        -2.64004279223543       0.87617325325312       0.22850320003424
H        -2.62112756768421      -0.57584218936249      -0.83642459964669
H         1.81946134289293       2.13516166084964      -0.02379311799735
H         1.90872407513519      -2.14112134553954      -0.39784317068517
H         3.10834451244103       0.03112339341612      -0.30245183511033
P        -0.44035246049312       0.13628888671172      -6.90735581690163
F        -1.15792258311674       1.63322863837281      -7.37504787255648
F        -1.68577689137558      -0.95208879911838      -6.42304413451452
F         0.77278992819755       1.13768501577356      -7.60416710233032
C        -1.24799229221451      -0.42903721143391      -8.57069416642042
C        -0.89573679653769       1.00978499929022      -5.24198093924080
C         1.11577983327092      -0.88123593839977      -6.42236531749663
C        -0.61961853452404       0.15071648352439      -9.85682700531545
C        -0.69608523883857       0.20410266945608      -3.93375750163689
C         1.95302077764658      -1.49685211860703      -7.55924652879151
F        -2.58580890768628      -0.05095941959154      -8.57475743676887
F        -1.22452454299818      -1.81098939869598      -8.67394163764733
F        -2.23819374973168       1.37645179876463      -5.26467856030837
F        -0.13962175568232       2.16683197468082      -5.12727489943168
F         0.71318346179726      -1.92088441083662      -5.60343816480052
F         1.97441633353322      -0.07066419384568      -5.69820256585000
F        -1.34711184669935      -0.28909722959764     -10.94853580514183
F         0.68079849101585      -0.27388245606442     -10.01743469079633
F        -0.64665784223268       1.53333620708193      -9.85621128486331
F        -1.28182283924860       0.90665881830713      -2.89622938547362
F        -1.29522947264102      -1.03998394586571      -3.98832205448908
F         0.63956034998537       0.05417420894481      -3.62183491291980
F         1.19042519519503      -2.30508967454508      -8.37403424078635
F         2.94459806976430      -2.28461010706982      -7.00129564773119
F         2.57492020496715      -0.51688128360494      -8.31077384047627
