43
C13H27NO2 optimized with ForceField in AMS.
N        -0.83585311710833      -0.21256467200870       0.02904227009360
C        -1.16603833420401      -1.24984695873827      -0.99741145002606
C        -1.97225500130469      -0.25286919283656       1.00031787196990
C         0.43642600223791      -0.57322078965929       0.73665615869156
C        -2.58600298901669      -1.72672246299240      -0.75601091808963
C        -2.79978936520085      -1.48989339815719       0.71266272009967
C        -0.76475034799120       1.13492458517084      -0.62543883015606
C         1.70171107602623      -0.52537163218603      -0.15375816043063
C        -0.40281915377718       2.29334181482757       0.33489779373338
C         2.91618688447814      -1.08256971764897       0.59749706685041
C        -0.51717373495814       3.64331510702419      -0.36714593652439
C         4.18074939555940      -0.99748003693451      -0.25249416615866
H        -1.06556076028559      -0.88239152208637      -2.04446897707396
H        -0.50828888142130      -2.14607093715059      -0.91970929035881
H        -1.64377233060619      -0.25653797872993       2.06489828445132
H        -2.65345848630317       0.62238805239265       0.88848952661408
H         0.34459828687261      -1.59755888474234       1.16754922056201
H         0.60178630367260       0.09607469261553       1.60964246043050
H        -3.29813247093676      -1.10863059723105      -1.34655868748384
H        -2.71419947775755      -2.79974856400055      -1.01823937606893
H        -2.40785574670748      -2.35167100779391       1.29710176169811
H        -3.87517226570031      -1.33383726478940       0.94861785335651
H        -0.02729864188074       1.12721655965678      -1.45805750109781
H        -1.74391839390827       1.36710940498145      -1.10604326433292
H         1.55127679947119      -1.11447704758130      -1.08218053438912
H         1.92491396691683       0.52325293883126      -0.44055281697071
H        -1.07335764624605       2.29981753774165       1.21884635290386
H         0.64150731994412       2.18932323352031       0.69438297048866
H         3.07139371331654      -0.50409028903168       1.53283141589250
H         2.73600238405357      -2.14522693483395       0.86857155297780
H         0.17700977794648       3.68675336932370      -1.23331765827158
H        -1.55683595000852       3.80969185745836      -0.72046136258733
H        -0.25024052258895       4.45481154209750       0.34236186962510
H         5.04394528824161      -1.39041679819479       0.32486620301257
H         4.06478257089969      -1.60325918186554      -1.17644030411939
H         4.39063944517702       0.05766112946827      -0.52955068126092
C         5.21995045241925       0.64069419530936       3.26840584217535
C         5.96247346117643       1.69875955855596       4.02137200056813
O         5.49150200839584       2.82057339994212       4.11917055460001
O         7.03870886885088       1.44626681954108       4.53884719167694
H         4.22828635348134       0.47475643051305       3.73940671633271
H         5.07602643970720       0.96533397194599       2.21663662045138
H         5.78443386886706      -0.31625680382426       3.27463432994473
