28
C10H12F3NO2 optimized with DFTB in AMS.
N        -0.10263031073251       0.42108723637331      -0.39061893337283
C         1.36251547459674       0.37636555290341      -0.46821198630037
C         1.96327101658297       0.06814489963552       0.90708435562200
C         3.46212836714914       0.35435657191869       0.89565116886346
C        -0.67187963315927       1.46279629769588       0.23315287813693
C        -0.84431403035595      -0.54914506598632      -0.94529145644183
C        -2.04635094435677       1.57213758891619       0.29920099907705
C        -2.22072872928094      -0.49099180907273      -0.89309092256931
C        -2.83897608210902       0.58663269463927      -0.26821403390168
H         1.64787530583950      -0.37697176443886      -1.20568868836359
H         1.69226101715848       1.36428044987156      -0.80160992821541
H         1.76487700934695      -0.97641083180510       1.16817475976221
H         1.48560222608935       0.70871885827251       1.65236956754500
H         3.96244493464043      -0.21913681645539       0.11449869542328
H         3.89263854066908       0.08573406812003       1.85968580015685
H         3.62721069732445       1.41778765645090       0.72134172219804
H         0.00845973815792       2.21582459477734       0.63319479879351
H        -0.31660754983265      -1.35826936958269      -1.43589864919748
H        -2.47998475198303       2.43934353887888       0.78017689527138
H        -2.80284418700066      -1.28091035157199      -1.35042565979698
H        -3.91959837377328       0.65375772652258      -0.23389833978218
C         1.79842382794159       4.11680859051456      -0.04927490148254
O         2.56230421511653       5.04686542877307      -0.11193726417251
O         1.76708817019740       3.05775380159894       0.59375950307939
C         0.48068490988127       4.20948204912258      -1.03873762608204
F         0.37012172040161       3.05415619639812      -1.76702030727838
F         0.44709929522454       5.21375971145904      -1.91176937483698
F        -0.67561228763385       4.26921261827073      -0.32060323073499
