34
C8H15F2N3O4S2 optimized with ForceField in AMS.
N        -0.68050173657978      -0.89773655916783       0.41412056748366
N         1.51071485012666      -0.53037745077577       0.34267291112210
C        -2.08776095250082      -0.79249491032579       0.79471690054135
C        -2.89650734254573      -0.05185854576872      -0.27803331819649
C         0.35885295824394      -0.25893442007365       0.98559314532787
C        -0.16836298394647      -1.60070323586452      -0.61701569976779
C         2.82329150369434       0.04518237523411       0.61961481583222
C         1.19092764436403      -1.36888070455505      -0.66412878380865
C        -2.39948805426512       1.37850278184322      -0.48698912145246
C         3.11103285644899       1.18727388260873      -0.34754091216535
H        -2.18280681155574      -0.25538546855351       1.76427917595099
H        -2.50557424121072      -1.81279200860450       0.93388652901975
H        -2.84334871545320      -0.60475858622380      -1.24055780982791
H        -3.96146193575979      -0.01830155778729       0.03778660399219
H         0.27287124992446       0.41922721148534       1.82618767037322
H        -0.74234110996560      -2.21687175802620      -1.29678839621154
H         2.85505359188840       0.43494013447027       1.66048903868141
H         3.60396185356302      -0.73970801109611       0.52125123191682
H         1.88937311152472      -1.76612517466187      -1.38920685740290
H        -1.36789779081739       1.37550437956572      -0.89868497540783
H        -2.40910182507905       1.93684811628045       0.47310074474520
H        -3.06165804034906       1.90064487232826      -1.20908237539476
H         3.06745670484838       0.82269009238381      -1.39392291052268
H         4.12274633514220       1.59993913796330      -0.15160994894304
H         2.35999279460146       1.99499762527677      -0.21621300450020
N         5.85980709829357       0.55664829881547      -5.23955823349806
S         5.36243254077158       0.22039690164803      -6.76139103820745
S         4.80616136483493       1.05980873641168      -4.09435543180747
F         5.14419969311559       1.65486234477155      -7.59650173680029
F         3.78311685453763      -0.20466558089114      -3.69692469178370
O         6.40376368941191      -0.60791637712113      -7.45838975167840
O         4.05952855943140      -0.52822815855114      -6.72668883066941
O         3.98576331098031       2.20354478101295      -4.62106871467224
O         5.56239748838094       1.50068923684836      -2.87360464076816
