30
C8H15BF4N2 optimized with DFTB in AMS.
N         0.38322128585606      -0.81073952514152       0.17660127695016
N         2.39878142850044      -0.21722678708262       0.64643591553416
C        -1.05923225373911      -0.77517452928888      -0.04058391101834
C        -1.40330045197486      -0.31722707123880      -1.46416319008452
C         1.13695179685660       0.19978883355284       0.60903193898068
C         1.19193265469436      -1.87206902370266      -0.13115216898899
C         3.58602268156450       0.57984846310533       0.95642113974990
C         2.46188740540610      -1.49620704631072       0.16475526984201
C        -1.28027350302376       1.19347917696550      -1.63570806979725
C         3.23706675909001       1.98841204501137       1.40501049782242
H        -1.49693591744790      -0.10357013543548       0.70434045193080
H        -1.43516891646070      -1.78724119879643       0.13325716106089
H        -0.73786984065542      -0.82079394299332      -2.16921658996955
H        -2.43096166402661      -0.63305627672632      -1.66916953810670
H         0.77302028428577       1.17001952300661       0.89141868832437
H         0.80254534412817      -2.78902014023487      -0.53617394808234
H         4.14968502748846       0.04694449687130       1.72927980900069
H         4.18168750256681       0.61410200934233       0.03811676763650
H         3.39717153710995      -2.01487935766616       0.05301135329030
H        -0.24765267529302       1.50880005124038      -1.49802677420392
H        -1.91308959772681       1.71803862072990      -0.91717292719122
H        -1.59123261478243       1.46887801792345      -2.64283190381592
H         2.71930494240516       2.51691646921215       0.60547126131095
H         4.16348726642679       2.51556940862087       1.63017865967502
H         2.61620751211940       1.97603497288373       2.30152942923428
B         2.33608435752846       0.75410383706078      -2.31074560164153
F         1.88533249392954       1.64102101539997      -1.26972428097071
F         2.48352568972936       1.44415183298449      -3.48188051750627
F         1.37552081631718      -0.26840083897543      -2.42310022446861
F         3.54993204372754       0.18279816368225      -1.88132556939727
