53
C15H30F3NO3S optimized with ADF in AMS.
N        -0.99090631330626       1.90005976115849      -0.02897992716683
C        -0.59280964326322       2.99587001062234       0.96883167253465
C        -1.97161084040065       2.59783622815109      -0.95345657409997
C         0.23319069698165       1.47578699364681      -0.83593374691966
C        -1.63132844754040       0.73647292277097       0.68570776818764
C        -0.85371426461708       4.34038442102393       0.27190122936782
C        -1.39609191340091       3.99157843280492      -1.12574830747407
C         1.26671034418903       0.69202627499630      -0.05176370994569
C        -2.06182416043732      -0.40775948954622      -0.21850062605532
C         2.50691994611695       0.46565952559065      -0.92358887971881
C        -2.79068227707646      -1.49231967052443       0.57997116594017
C         3.71259907320102       0.02115931736018      -0.09847369123166
C        -3.23730963311756      -2.66372332874535      -0.29524794049513
C         4.98583317827983      -0.03900222567303      -0.93705991224765
C        -3.97729081134818      -3.74333846496465       0.49094164971394
H         0.47019817009888       2.87292011601823       1.21593206296475
H        -1.21493296250226       2.85023534352502       1.86298970507267
H        -2.93622843914787       2.62226957140836      -0.41974647766437
H        -2.07473753262886       2.01605377242236      -1.87823330520930
H         0.69386371417065       2.41108519401314      -1.19556164862784
H        -0.14506385189877       0.90459082734355      -1.69750666131245
H        -2.50100543348101       1.15267650152420       1.21892203589182
H        -0.90682702419083       0.39162540942526       1.43852493514858
H         0.07961336319856       4.91376054822246       0.19534136491154
H        -1.58666955558962       4.92429421794009       0.84793440283762
H        -2.16571621347951       4.69591487963341      -1.47387135933859
H        -0.57407126608105       3.99554659443011      -1.85715190179459
H         0.87477144503075      -0.27774105333408       0.30210411709074
H         1.58549273279952       1.27758657852146       0.82539995737287
H        -1.18427028136025      -0.85438879281639      -0.71440602149610
H        -2.73314926399321      -0.03759779746511      -1.01229018191356
H         2.76809999868348       1.41005246823637      -1.42968771589804
H         2.28706749071821      -0.27604881003897      -1.71462317378731
H        -3.67473213727128      -1.05316078151470       1.07917009399824
H        -2.13034150500892      -1.86707509225793       1.38386567204379
H         3.50723679494571      -0.95822228262797       0.37333400511864
H         3.85383148923336       0.75371358430924       0.71526869810492
H        -2.35191234671536      -3.10383855421271      -0.78868270711434
H        -3.88742875820433      -2.28209959249048      -1.10353544606935
H         5.84639936792945      -0.36863014204622      -0.33473257348747
H         4.87547243268922      -0.73622026303007      -1.78350190922739
H         5.21062599601115       0.96221202268219      -1.33662252154328
H        -4.28720230351768      -4.57196149046880      -0.16420487455515
H        -3.33896233967821      -4.16370559688714       1.28413937007925
H        -4.88282091502097      -3.33573981034571       0.96791758331465
S         2.95229640753990       4.13822359844153      -0.45051151740967
O         4.25120088587745       3.61527928577262      -0.88110568080390
O         2.47285161809794       3.66924554664434       0.87181437059366
O         1.88960809240403       4.15446278070625      -1.48827913914023
C         3.27362590741305       5.96616854184921      -0.16081209390755
F         3.77722983078158       6.56192132133950      -1.27160313638348
F         4.15503210483062       6.15382768489450       0.85424145047059
F         2.11587883955604       6.61837211846087       0.16900730748020
