46
C14H29NO2 optimized with DFTB in AMS.
N         1.18609812013705      -1.06106316892250      -0.22925073679866
C         2.22668721991421      -1.02779347877042      -1.32187049564416
C         1.61993990329744      -2.18117215385058       0.66942001035562
C         1.20829353224121       0.22568777366070       0.55732404268016
C        -0.15476560847441      -1.34113416691580      -0.82699221073270
C         3.49466596879491      -1.66362159392702      -0.75240099342638
C         3.13918542303635      -2.12070710477365       0.66302854237515
C         0.67077501024934       1.44033232952978      -0.19170894953672
C        -1.28438978985061      -1.42921885801957       0.19731291455754
C         0.90620828688094       2.68939341454860       0.66675272271652
C        -2.60169170456960      -1.75876857698128      -0.51511461068915
C         0.37787126302432       3.93988304965294      -0.03134138021918
C        -3.75754444915883      -1.84647248147461       0.47906359968087
H         2.40248165613498       0.01159645143050      -1.60575508411040
H         1.84378111747812      -1.58913625863425      -2.17640279271930
H         1.26221078100055      -3.11859966479168       0.23372597715759
H         1.18201671343449      -2.05089113674798       1.65891121101870
H         0.63271791022157       0.05751137531989       1.47091084005969
H         2.26335797928362       0.39933150035141       0.82344322137617
H        -0.35905357077591      -0.55068367587939      -1.55262164329421
H        -0.07358154181388      -2.28944903871502      -1.36614080709608
H         3.80675703821057      -2.50467975242557      -1.37584068624016
H         4.29843254146639      -0.92718398586238      -0.72135528786886
H         3.50138677900826      -1.38695632886065       1.38673948461868
H         3.56442192312681      -3.09637457118506       0.90262524049222
H         1.20628714936013       1.56566901591886      -1.13511311510982
H        -0.39890048458358       1.33910792594437      -0.40424495032119
H        -1.06496480825867      -2.20771534737696       0.93335578566963
H        -1.39312008420902      -0.48128766647043       0.72937537449129
H         1.97949793786860       2.79807976251778       0.84259642130872
H         0.41028534429810       2.57037378247144       1.63653117029103
H        -2.81594509199794      -0.98286915254376      -1.25738510223561
H        -2.50118425417474      -2.71179397868856      -1.04520054427105
H        -0.69440050126585       3.85544100804736      -0.21833690161946
H         0.88716931906441       4.08523013918486      -0.98456989844409
H         0.55382790821273       4.81573754752483       0.59338751821537
H        -3.88512439220267      -0.89748888422782       1.00104705856597
H        -3.56892542423877      -2.62701432807465       1.21712315498494
H        -4.68241253958549      -2.08127310066948      -0.04734964907542
C         5.53791165332205       2.42405111373609       0.19276892608121
C         4.30433770611646       1.49246062881875       0.13024937186803
O         3.60681363029571       1.56279523755196      -0.90428472744777
O         4.10092709765564       0.75197227218046       1.11914678490481
H         6.10659190524965       2.33281877723280      -0.73121175524627
H         5.19075380775464       3.45253259676397       0.28661121359333
H         6.16427045472077       2.17137670410174       1.04596072898339
