34
C8H15F2N3O4S2 optimized with ADF in AMS.
N         0.57351189285127      -0.18833354277199       0.97331514747946
N         1.96545023732263       1.28174053125278       1.76008148632727
C        -0.57484193262565      -0.78354544324338       0.27470782990921
C        -0.44170732441698      -0.69063777045109      -1.24432373118975
C         0.74604014769888       1.11626860648950       1.22950992992325
C         1.71882452456729      -0.86397178820824       1.33435649654678
C         2.56199138939832       2.57315340518007       2.15049495974317
C         2.59128530491672       0.05971588776412       1.83005213756599
C        -0.63242502462942       0.71868274965861      -1.79105557676790
C         2.51614136969938       3.58066583633578       1.01663070008584
H        -1.48124471286163      -0.27017502746234       0.63329060949797
H        -0.62796565824194      -1.82926190194637       0.61178358354770
H         0.55045700178946      -1.07149468522439      -1.53880283107641
H        -1.19882352995110      -1.37145308382986      -1.67092624024883
H         0.02678114137762       1.89773852643768       1.02912431082730
H         1.83614073972901      -1.92625045782358       1.16357767419565
H         2.03229809327691       2.92497432497804       3.05022072867699
H         3.60241914493125       2.34677632680983       2.41705542508962
H         3.61915353601392      -0.03546228827021       2.15350795369223
H         0.15590216851000       1.39377487438697      -1.42790643987838
H        -1.62329754445042       1.12231153472564      -1.52236143813213
H        -0.55206265246224       0.71434078559381      -2.88834246705418
H         3.01647210200219       3.17285951691385       0.12786801484955
H         3.04262568636074       4.49318387887058       1.33226938506341
H         1.48493428051439       3.86520361309866       0.75675685036378
N         5.03268297520409       0.41392103668289      -1.90159722830354
S         5.58669763444916       0.32418088367842      -0.40222778670644
S         3.53277610452758       0.87834186833435      -2.19214322737957
F         4.91439281690044      -1.11489247325713       0.13828387757562
F         3.63900738590278       2.54043617304033      -2.08165097531468
O         7.00451111080799       0.05514492497872      -0.44094237932181
O         5.04932346019321       1.29608039374118       0.54868161926618
O         2.54318326103205       0.55975163858616      -1.16593413994157
O         3.21656059466211       0.63759419635062      -3.58231277711181
