35
C9H20BF4N optimized with ADF in AMS.
N        -0.30270428966891      -0.29745336984854      -0.25391309486089
C        -0.77056466467255      -1.69678201069995      -0.68463197183627
C        -1.51699061427279       0.31130616927390       0.41689392093077
C        -2.03443874247624      -2.00245046208719       0.13548073035644
C        -2.17844179593050      -0.84737298637884       1.13951345434863
C         0.82115912455929      -0.42608688410032       0.75954821477349
C         0.12373408248180       0.51454876129188      -1.46395659319473
C         2.14757020317681      -0.87985639652596       0.16797322263117
C         0.51381806480776       1.93927354897866      -1.13372773078445
C         3.07877633845541      -1.38005441365337       1.27136058610821
H         0.05889086879912      -2.38930502481982      -0.50965832422013
H        -0.94305595412628      -1.68638029930995      -1.77114923376661
H        -2.16081419882640       0.68718324178764      -0.39344151392086
H        -1.20577208678087       1.14693529966795       1.05554781960133
H        -1.97369979673748      -2.97997770405085       0.63410039357161
H        -2.90531701374635      -2.02771628094347      -0.53699905056247
H        -3.22682504890044      -0.61929969773747       1.38114689861743
H        -1.66217349059765      -1.06312797081864       2.08814435996984
H         0.46580729275949      -1.15165060043160       1.50708196214239
H         0.92055672414066       0.55072111465154       1.25822474940564
H         0.93126538345142      -0.04484133788076      -1.95157199471540
H        -0.72652692787427       0.47830904553577      -2.16010264535394
H         1.98982758089579      -1.66868015563770      -0.58465040385655
H         2.62339980578093      -0.04447035017322      -0.37083522995390
H        -0.31232171459040       2.52133393920531      -0.69801314690374
H         1.38237017240668       1.99794688546680      -0.46105960582251
H         0.79981954374640       2.42510565470465      -2.07899433176509
H         3.27345847991679      -0.60381157539630       2.02845496543661
H         2.64959183233449      -2.25563121208411       1.78383186051835
H         4.04461631834009      -1.68294538231828       0.84241062735455
B         0.64150361584012      -1.78006908391055      -3.97435057199776
F         0.69537139319974      -0.38581656943825      -4.26046037116428
F         1.12263945691077      -2.54922792149348      -5.03225014439506
F        -0.72258997199873      -2.12655745838469      -3.66461687718976
F         1.42932710579627      -2.01863760884083      -2.77965241560208
