50
C14H15F18N2P optimized with ADF in AMS.
H         3.15783762088962       1.12581905034336      -3.42999356408391
H         1.62393856307927       0.20949089923947      -3.44162301148976
H         3.17535297893859      -0.68229900839258      -3.54220391964762
C         2.66993934274642       0.19389492478883      -3.11814387514522
H         4.01760125278456      -0.11982413827816       1.32474587508119
H         4.76573222604735      -0.45093404337900      -1.33679467328279
H         0.72117876747033       0.77253103712869      -1.18005370162845
N         2.70703777251579       0.10996298570035      -1.66048835833983
C         1.69487457223511       0.44299603203100      -0.85042908947334
N         2.12179545921510       0.36335065962076       0.41505137052593
C         3.44830712758515      -0.01973315161029       0.40954302577159
C         3.81625078465013      -0.18079310091491      -0.89245958164453
C         1.38509428762507       0.82646673477773       1.60749927894140
H         1.66608139844542       0.15081117123878       2.43043182928539
H         1.76016214312366       1.83942834649256       1.82269945808522
C        -0.12155992345246       0.85346334576063       1.41666749298277
H        -0.49137214874846      -0.15658259078820       1.16115431818407
H        -0.37582981431341       1.53723166231890       0.59166433563275
C        -0.81139200663681       1.36162490496700       2.68462924753835
H        -0.57782800492985       0.68926948409166       3.53018275202361
H        -0.39779486241880       2.35375330317976       2.93803876327765
C        -2.32286368663410       1.46989634069715       2.50601459008874
H        -2.76379962603512       0.49337608530067       2.24887988995135
H        -2.56762275807167       2.17784425373104       1.69875456403564
H        -2.80664236283160       1.82735877416248       3.42688316621475
P         1.84958382849091       4.36421879660354      -1.29030132857311
F         2.42958294933260       3.33602149982888      -2.49793835222531
F         1.22786334691923       2.99977051156034      -0.49277421474679
F         2.42760355447703       5.72855845275580      -2.02840938212812
C         3.62922817401606       4.12320193686890      -0.44197894886870
C         0.23181064280906       4.50595344067539      -2.43502030901660
C         1.09351824003621       5.36326861091750       0.26778291541400
C         4.85415183592174       3.80068039771389      -1.36889047059296
C        -0.78480251567409       3.32575665407447      -2.47777859270635
C         1.16904518899334       6.91811494965480       0.37096182604792
F         3.63614517991921       3.08737261545275       0.48800276153319
F         4.00376885023003       5.26130951641469       0.22435574513705
F         0.64744255484841       4.64566497620498      -3.74272529499865
F        -0.52300846067487       5.61821027388002      -2.15421660306123
F         1.68672390066155       4.88354694885406       1.42453176102326
F        -0.24659418895558       5.05237252897871       0.38776912638188
F         6.00093668241747       3.92596078841355      -0.64089344241934
F         4.94309335777385       4.62640805422784      -2.42586177599064
F         4.83043613930709       2.51161353544072      -1.82490691001579
F        -1.74857490184355       3.57941555097235      -3.39744008423420
F        -0.17994362829285       2.15026343371417      -2.84674684944769
F        -1.39979799129287       3.11253936876629      -1.29002059851332
F         0.56535456293041       7.30970343680792       1.53256433872530
F         0.52545172669641       7.52005754398887      -0.65148457228457
F         2.44099537787385       7.36830786462187       0.39899024557581
