46
C12H23F2N3O4S2 optimized with ADF in AMS.
N         0.93079908265980       1.65875874764714      -1.24430115182077
N        -0.06110248130067       2.00434831519595       0.65839426332173
C         1.31288643282430       1.00538166914742      -2.50470145852887
C         2.18974355144882      -0.20996771470300      -2.24132039267925
C        -0.98399800482124       1.86018650240897       1.79592832935294
C         2.59076098462103      -0.93792501235361      -3.51855931432725
C        -0.57845972706948       0.71496415098611       2.71531144479694
C        -0.12291361353204       1.31584682597278      -0.48953630189208
C         1.69546257502169       2.56720617915046      -0.54656742531513
C         1.07536205410150       2.78088167655361       0.64953390028072
C         3.43345106477691      -2.17293489867501      -3.19842377034797
C        -0.79796927396124      -0.67036255799929       2.11267214389433
C         3.92614046199773      -2.89970777207988      -4.44481547949032
C        -0.31958267800122      -1.77520369677291       3.05116753962675
H         1.83355810183096       1.76010671661344      -3.11419347636902
H         0.38358997368104       0.73611824980219      -3.03155260094685
H         3.09363875267286       0.11122886559207      -1.70098687322869
H         1.65955025495416      -0.89679246289508      -1.55955401012669
H        -0.97081298133886       2.82292935493499       2.32611326008348
H        -1.99380481813799       1.71444659794010       1.38033770191066
H         3.16809032278373      -0.25692626706955      -4.17284616146134
H         1.69210161815080      -1.23851729238593      -4.09106887164867
H        -1.17338281363332       0.81922427400826       3.64006579172824
H         0.47838521637400       0.84451807182263       2.99473530991124
H        -0.88493887186938       0.59564088504485      -0.75534166769999
H         2.63573149505527       2.94124724235893      -0.93034267879937
H         1.38140625499766       3.36019439677931       1.51128457905619
H         2.83507209960053      -2.86054531654889      -2.57429671661717
H         4.28913984005302      -1.86868383600858      -2.57084949479688
H        -1.87063438541246      -0.80464341639500       1.87429785859726
H        -0.22876661564653      -0.75649915349853       1.17235136666269
H         4.56058608322711      -2.24234465825598      -5.06128644451191
H         3.08356659241310      -3.23728803256327      -5.06982766794137
H         4.52179525071275      -3.78413961945128      -4.17312428908871
H         0.76181212783871      -1.67687875689659       3.22602792461739
H        -0.51259404700438      -2.76931881255047       2.62254651155037
H        -0.82904719155047      -1.71666557467333       4.02639426522012
N         4.24957774784644       0.00954216923818       2.60067870657081
S         3.54454008344405       0.98552769052119       3.66938977650526
S         3.60993675382476      -0.20534562245308       1.16193269543427
F         2.38670920416703      -0.01743068336429       4.32453738343656
F         4.13943968838699       1.15867098896021       0.32357085047772
O         4.46373827171101       1.22251832670050       4.75701020643343
O         2.75249299373287       2.07995663093239       3.11775800089468
O         2.15676765679594      -0.09837905646531       1.05800663826613
O         4.28854190547269      -1.28610387155281       0.47735674500838
