43
C11H17F6N3O4S2 optimized with DFTB in AMS.
N         1.02773123095858      -1.63696233397784       1.40213652525881
N        -0.62863579275316      -1.66984036850568       0.02656476680756
C         2.12461104360997      -1.17691531121565       2.25080544878217
C         3.33325925484662      -0.70655633212553       1.43608598740583
C         3.12477677580097       0.66554090377811       0.78700679809428
C         0.22303486050249      -0.87006134935998       0.66743730360207
C         0.70768629583680      -2.94861387388054       1.19686803569586
C        -0.33703241729126      -2.97116077757420       0.32895756810960
C        -1.62593101707883      -1.24478233273337      -0.95105198817116
C         4.45915406859839       1.28450340906243       0.37386960153893
C        -1.05077176059996      -1.32628338659244      -2.36132514702242
H         1.74520356942688      -0.37164337811150       2.88832815627817
H         2.40804007764866      -2.02335183914429       2.88052983827919
H         3.56274532178854      -1.45247544474036       0.67206700100874
H         4.17755596601303      -0.65761903993087       2.13047189478721
H         2.48989822913108       0.55797489108140      -0.09689005134680
H         2.61721238983301       1.33613771907258       1.49111196961583
H         0.23836295236283       0.20390348013582       0.61591258461517
H         1.25447664743166      -3.74958373414122       1.66061677450458
H        -2.49401745687903      -1.90140295744597      -0.84432225198180
H        -1.92159285577087      -0.22085045344306      -0.70628693029243
H        -0.88437775043820      -3.79364445089031      -0.09540752492153
H         4.99605481426215       0.61590517568645      -0.29748569629513
H         5.08158207446148       1.47247107368015       1.24987072926538
H         4.28558670115192       2.22918851189217      -0.14118407650288
H        -0.21549181333966      -0.63790989402192      -2.46989179451574
H        -1.82793231253698      -1.06288912859626      -3.07710520965833
H        -0.69654791513737      -2.33380566981666      -2.57107086476198
N         3.28292518211953      -3.29031592488389      -2.60136165776121
S         3.20344656764902      -4.23112515297387      -1.31774715992882
S         2.52827602845043      -1.88192673500117      -2.60243598052457
C         1.56828253475195      -5.14283913485511      -1.50518715813237
C         3.94885065005119      -0.70791717999837      -2.88514214637749
O         4.19940203348329      -5.25290665663029      -1.45759114755725
O         3.07752457745519      -3.57434671551576      -0.02948367388649
O         1.93185490680401      -1.43424042163057      -1.35103415717480
O         1.71260809531410      -1.75048668593004      -3.78534281532290
F         1.68740155748631      -6.20042244884892      -2.28235845836797
F         0.64169430460290      -4.33559955283077      -2.02412725323970
F         1.12638636123070      -5.53758204555060      -0.30910324649876
F         3.53641250351121       0.53660047430109      -2.67022189539336
F         4.40651847653489      -0.79969305753683      -4.11930173661169
F         4.93468973621560      -0.97462205295634      -2.03926862990184
