40
C12H26ClN optimized with DFTB in AMS.
N        -0.54774840694736       0.36593982487632      -0.10374683233440
C        -1.07505885672465      -0.30331003716107      -1.34362738323628
C        -1.71190411460543       0.78717629673603       0.74347164778714
C         0.34481895101834      -0.54225167374195       0.69785380515027
C         0.18874332977146       1.59652287778046      -0.57269620882776
C        -1.97163097070180      -1.49188177266200      -1.03943490637374
C        -2.65514841723193      -0.36221008016567       1.08689155359226
C        -3.15665502195659      -1.06491402290720      -0.17442405721030
C         1.61487295953840      -1.00850443092541      -0.00881924774106
C         0.92303433011279       2.37640293278730       0.51274095539178
C         2.41284147433595      -1.91368877477810       0.93577186803752
C         1.55916731281838       3.61318424830878      -0.12368185940749
C         3.67923024840416      -2.42255813866061       0.25032670329240
H        -0.21316961662145      -0.58618248857583      -1.95796406263938
H        -1.64227678641056       0.45828264769354      -1.88565132952332
H        -2.25312601191997       1.55250703940156       0.18010921040637
H        -1.31811849037346       1.23574201760003       1.65787691833776
H        -0.24878155326372      -1.41390984441747       0.97960902254136
H         0.59883808303377      -0.00308169043379       1.61466863087422
H        -0.55850304400039       2.23827707491589      -1.04722195411131
H         0.89241230974835       1.26365435167016      -1.34719389433369
H        -1.41076810622866      -2.29167756610974      -0.54893262527054
H        -2.33241752441614      -1.88030332228732      -1.99514174914765
H        -3.49964258177053       0.06301394480411       1.63653080560736
H        -2.16132781613113      -1.08024616031042       1.74720486636617
H        -3.79688813411251      -0.38196477154322      -0.74241180036103
H        -3.75296425174605      -1.93688617255537       0.10488094863119
H         2.23152906689099      -0.15790125230547      -0.30205070157551
H         1.36655376431603      -1.56146441920595      -0.91589802199323
H         0.24005747330990       2.68731085049108       1.30980157637033
H         1.71249843966291       1.76678189195498       0.95913273474445
H         1.79247852126914      -2.76486277426419       1.23911833786873
H         2.68257465716790      -1.35633202780382       1.84007848060575
H         2.11261207372042       4.17276629214814       0.62976810817823
H         2.24624419469723       3.31688520369935      -0.91652222602978
H         0.79355537322352       4.26215061627581      -0.54986629956697
H         4.31466737646952      -1.58718062495820      -0.04401488226146
H         3.42427938017353      -2.99460722024599      -0.64198509605855
H         4.23808655603194      -3.06521766493641       0.93088995618297
Cl        1.62454907764774       0.07874072541164      -3.02863501166281
