33
C9H17BF4N2 optimized with ForceField in AMS.
N         1.00521215705129       0.35318574931118       0.46523862240889
N        -1.01475322955694       0.34483992354385      -0.46348956813449
C         2.25659106794203      -0.11590959875530       1.05749138045603
C        -2.25557199327728      -0.13446571477278      -1.06946958319159
C         0.00189224253109      -0.41143724484431      -0.00667844766744
C         3.43384209449987       0.09309101018866       0.09878176533096
C        -3.44135274751147       0.04368698606863      -0.11557394974453
C         0.61117896860101       1.63241246188258       0.30212045460193
C        -0.64380398510685       1.62729959145523      -0.27398848626657
C         3.27964873395831      -0.72678461730569      -1.18147194477275
C        -3.27457501609167      -0.77574479913629       1.16328023895723
H         2.17643478986512      -1.19550036526153       1.31441260651964
H         2.44535328751045       0.43758038973463       2.00264505444495
H        -2.15810063162432      -1.20920265201337      -1.33999651419580
H        -2.44701786060449       0.42931007411335      -2.00798752642860
H         0.01168457786704      -1.49453467298489      -0.01805425289951
H         3.52707972159099       1.17017423360469      -0.15915339171181
H         4.36938926572812      -0.21896209489176       0.61110637278016
H        -3.55957467201946       1.11662436155867       0.14441156688211
H        -4.36751550543131      -0.28677701965671      -0.63310884004006
H         1.18919268117363       2.50309526103771       0.58448253758577
H        -1.23657296365715       2.49327312137871      -0.53989520492369
H         2.41666071257506      -0.35935742172847      -1.77579293172582
H         3.12606439236892      -1.79986001432144      -0.93873996058251
H         4.19732366312410      -0.63077821681342      -1.79864929774503
H        -2.42012387469381      -0.39341628264304       1.76062347644103
H        -3.10021157557696      -1.84508865742682       0.91823400916092
H        -4.19518366693008      -0.69792892155841       1.77863680733412
B        -4.00371868445220       4.72625097443016       0.26909624124358
F        -3.74641960587567       3.58993172042315       1.08046668639546
F        -4.37102435163232       5.82198474217582       1.09474834353448
F        -5.06302010400208       4.43610896252887      -0.63163056302999
F        -2.83455501794295       5.05797543957834      -0.46587477021708
