41
C11H9F18N2P optimized with DFTB in AMS.
N         2.67144429728663       0.07599235895355       1.22438288481614
N         1.49780067772913       0.65111380758754      -0.48461113510580
C         2.46848795686620      -0.15759398188400      -0.07038183357348
C         1.82465360144891       1.06475905562824       1.64083938037124
C         1.08426658021196       1.42998073057926       0.56107491507094
C         3.69346145186568      -0.56848824149613       2.03467507113749
C         1.05373258058046       0.80018324887090      -1.86115663808118
H         3.00669342863374      -0.86643523601554      -0.67450083157882
H         1.82397645687861       1.42948125625124       2.65316152060712
H         0.31776674293966       2.17649230260844       0.44941019425098
H         3.30875345835479      -1.51097370010583       2.42659648102581
H         4.56780521838537      -0.75187550173991       1.41232274780663
H         3.95767164314372       0.09440944967333       2.85620286355398
H        -0.03513306289352       0.79171724850350      -1.89272894735832
H         1.43175512357137       1.74866889740215      -2.24493122107298
H         1.45770530141220      -0.01860164506295      -2.45238534298331
P         5.86902583249865       1.71027206086394      -1.32291215410487
F         6.53511625377223       2.50544782466507      -0.02436496627511
F         6.74996804877209       2.59990255877373      -2.41166082598204
F         4.90443014223304       0.76687328101374      -0.23928235739185
C         7.36345618962682       0.46098710919282      -1.11269875854952
C         4.44836967773944       3.12172527009014      -1.30331910223970
C         4.97029308440541       0.66496010566243      -2.82546555612244
C         7.51393806088867      -0.33068337585283       0.21793268069680
C         3.99284656241233       3.83138706608204      -2.62847685771468
C         4.74272125547488      -0.88346149737263      -2.81297288476226
F         8.50878401886408       1.14165731563965      -1.26113778039638
F         7.31490167727154      -0.45742912695572      -2.10096248274139
F         4.84152523216435       4.10727536344814      -0.48710015196499
F         3.31447187088107       2.61839414426049      -0.74852900662167
F         5.51845424904282       0.94824464344746      -4.01235192906336
F         3.70201745872170       1.17570929069049      -2.84506181465672
F         8.66032242956451      -1.00767306520168       0.22291714219835
F         6.52591506565572      -1.22091546133981       0.38349573573431
F         7.50593947462079       0.46854201650425       1.27979933300152
F         4.12621513317696       5.14967807214543      -2.52072476745439
F         4.67184499643178       3.44171610975779      -3.69715845703084
F         2.69373002164577       3.58198252738139      -2.86001552833115
F         5.51535741132005      -1.51294106587871      -3.67675318101688
F         3.46229986367250      -1.16369341054273      -3.12751642927043
F         4.93602356242779      -1.42392574272866      -1.60287874002675
