61
C17H36F3NO3S optimized with ADF in AMS.
N        -0.18231106972139      -0.36806171431336      -0.16989175723441
C         0.75687866392564      -1.16296876899303       0.71414681325833
C        -1.00021059430491       0.57527119832774       0.69805628894019
C        -1.09056054346125      -1.32805907900139      -0.93009340126202
C         0.58318994097555       0.46329946685625      -1.19974881990230
C         1.84275448757989      -0.36614066221028       1.42106327695948
C        -2.16600052005747       1.25366277728308      -0.00066254249871
C        -1.97248238041767      -2.22511667491811      -0.08168327905555
C         1.57076905276741      -0.30253544196483      -2.06192921799104
C         2.69300133295030      -1.29258343513605       2.29656230687073
C        -2.76516748529974       2.33675083992603       0.89920305065265
C        -2.93065471978778      -2.98578222641305      -1.00672969497151
C         2.30924211328138       0.68493894731226      -2.97181167451175
C         3.80459324179746      -0.54165347834719       3.02437374386178
C        -3.95094793016898       3.02459424016718       0.22897644703687
C        -3.81018037156826      -3.97056069231898      -0.24525109242031
C         3.16314157456423      -0.04026222587435      -4.00628393373841
H         1.20340790360805      -1.93437848759398       0.07054818481564
H         0.12051485063248      -1.67105439411358       1.45256582441311
H        -0.29266366035147       1.32934637637168       1.07319765773799
H        -1.34988029658693      -0.01446089042614       1.55909060852263
H        -0.42867551159422      -1.93294842687879      -1.56363551373090
H        -1.68545848240876      -0.70457459640393      -1.61225077566040
H         1.08738875492348       1.26061763168614      -0.63273057506313
H        -0.18387880755360       0.90697356038618      -1.85287144493911
H         1.40323726384441       0.41858890138463       2.05904503514300
H         2.49756146989609       0.13307879521262       0.68877726952552
H        -2.94706962401906       0.51890807580276      -0.25162435148846
H        -1.85570047395411       1.70063993382516      -0.95717251891601
H        -2.56547975464793      -1.64039265798939       0.64321666016263
H        -1.37497553125520      -2.95276393530705       0.49569202766513
H         1.03757323871249      -1.01485542507831      -2.71099229060506
H         2.30704398268871      -0.85946492270347      -1.45635629263812
H         3.13341466570870      -2.08783064605242       1.66835045172028
H         2.04469736067644      -1.79957911670071       3.03360822457373
H        -1.98872605828954       3.08560299776001       1.14056141803570
H        -3.08300246115482       1.89435987861740       1.86183693574047
H        -2.34855019793673      -3.51302692715774      -1.78133599339208
H        -3.54952408346310      -2.25907035587971      -1.55949659897612
H         2.93213646845993       1.36179571685031      -2.35707930486221
H         1.55917249421610       1.29701614935389      -3.49986844935661
H         3.39034524919088       0.24031264201428       3.68108325367602
H         4.48809013069208      -0.05544836582370       2.31044252731130
H         4.39837232562902      -1.22587580050922       3.64772585173393
H        -4.74985744265453       2.30050245615576       0.00435918508326
H        -3.64608141211219       3.48530754395649      -0.72354961337338
H        -4.37156390418183       3.80938032205826       0.87381568696020
H        -4.41852118804510      -3.45776838625431       0.51774527035133
H        -3.20314864810281      -4.73509127292869       0.26692490354281
H        -4.49597641172581      -4.48852589746895      -0.93111512498710
H         2.51250719219008      -0.63388134735331      -4.66697410125817
H         3.89388784327776      -0.71396798052237      -3.52842706735305
H         3.71660132140207       0.67688130217321      -4.63000091102421
S        -1.57720138393566      -0.20057671734415      -4.32827694835213
O        -1.91837820848415      -1.60114309102163      -4.02015392890593
O        -0.23286008677174       0.02522045904958      -4.88448939436146
O        -1.97298083290070       0.76359790197702      -3.26574659798593
C        -2.72335074285337       0.23541354266519      -5.75142350800086
F        -4.03040809925159       0.10997774497583      -5.38831556482532
F        -2.50661487730127      -0.58311277150754      -6.81442608851149
F        -2.52867723376694       1.51670180036077      -6.16458079684145
