34
C8H15F2N3O4S2 optimized with DFTB in AMS.
N        -0.76422604551555      -0.96931873738628       0.30278014762065
N         1.37439221631132      -0.84562235416247       0.49729894436710
C        -2.17624390852249      -0.89947046743032       0.66419476189609
C        -2.79152645632359       0.43548769576572       0.23839807473679
C         0.22206099871426      -0.54264266402762       1.08480216338374
C        -0.23111622660289      -1.55480710656343      -0.81312182574376
C         2.68885857484644      -0.58071880993222       1.07516517619640
C         1.12112660475678      -1.47587822685542      -0.69181703477179
C        -2.17714446709538       1.62207548604116       0.97747061527072
C         3.35751171451087       0.59042823905655       0.36670065881772
H        -2.23675637133345      -1.03076079215255       1.74825897510236
H        -2.68661975962276      -1.73035059079470       0.17200367632419
H        -2.67100167625107       0.56353704964575      -0.84203450331897
H        -3.86190325374670       0.38410230189858       0.45629836902654
H         0.10911557481202      -0.06390672892437       2.04049194986495
H        -0.84601709262846      -1.98342986013109      -1.58499806649188
H         2.53654089216359      -0.35725547388322       2.13371216790882
H         3.28415599400128      -1.49264241754853       0.98330445021790
H         1.90857216186207      -1.82296261848822      -1.33765107487933
H        -1.12841715930871       1.74525304582047       0.70443588398682
H        -2.24231343509906       1.47509120039944       2.05557062013967
H        -2.71084108509643       2.53487146149933       0.71483953387920
H         3.50149163537944       0.37107934995065      -0.69109206400289
H         4.32780433591808       0.77505962379767       0.82477383528731
H         2.74648593353330       1.48777184187709       0.46093515922435
N         0.15487020617017      -1.71878060919465       5.02662532968347
S         0.31266986395436      -2.71379346275730       3.80302294041354
S         0.10496185158180      -0.17357201428750       4.69680060232202
F         1.77748418974463      -2.35245087146513       3.14785560656553
F        -1.24499984913898       0.01661633584754       3.75573554452234
O         0.46311857891042      -4.03424793155774       4.30335852782725
O        -0.57957684840067      -2.49309863860863       2.69568409723253
O         1.14018816341311       0.32309030136768       3.82794929375353
O        -0.18811277679782       0.54475069008378       5.88519211723702
