26
C8H12BF4N optimized with DFTB in AMS.
N        -0.19405574083288      -0.10339018107283      -0.37841522862880
C         1.23562372173434       0.14476087392202      -0.60402491046491
C         2.05564828812207      -0.09443338889793       0.66458478649400
C         3.54444788131702       0.02113309913107       0.34740141177639
C        -1.09447126721559       0.87417131798691      -0.57753163162137
C        -0.58070177903726      -1.36070936128525      -0.10997162495961
C        -2.44184260048861       0.61239251920175      -0.48791703909599
C        -1.92820809112740      -1.67234210988729      -0.01291028263998
C        -2.87304447072587      -0.68532226740360      -0.21301503216677
H         1.54600770924410      -0.55386474630437      -1.38729888360633
H         1.35487559729777       1.17140882494149      -0.95794197173826
H         1.85101373304785      -1.09887964659274       1.04275302791761
H         1.76774288896740       0.63101886651464       1.43233456358826
H         3.82769885957696      -0.74212410084692      -0.37750756983199
H         4.12645876507038      -0.12563959810452       1.25657843366649
H         3.77875288036450       1.00379375624583      -0.06403788158204
H        -0.70974985757665       1.85928699096608      -0.81291965477556
H         0.18940667553459      -2.09524957270502       0.07842646922967
H        -3.15128731632424       1.41401250367831      -0.64827801825202
H        -2.20626628430317      -2.69981064263037       0.18330821922176
H        -3.93186814690748      -0.90752130316765      -0.15834968075757
B         0.83455865993481      -3.19558210135464      -1.80351372946086
F         1.89929761268972      -2.63318207256971      -1.04832700967349
F         0.05417596911922      -3.97757958608519      -0.94891339779756
F         1.28148256957262      -3.86529501648627      -2.89856030989003
F         0.01528174964582      -2.06854223239383      -2.19285006895105
