28
C8H18ClN optimized with ForceField in AMS.
N        -0.01046921281145      -0.00713029566249       0.01650095764160
C         0.90243144073446      -0.86094204635895      -0.80342216089979
C         0.89649078532175       0.84344978574763       0.84754735091722
C         2.31089222497498      -0.31770190803252      -0.66671516729860
C         2.31367108811404       0.32559015019047       0.69103435344954
C        -0.85341870111353      -0.86352830903555       0.91222997662231
C        -0.83815251873322       0.85216839947810      -0.89096342031172
C        -1.84308705880258      -1.78203470175785       0.17194390052118
C        -1.83859138181784       1.77096907769009      -0.16563953865410
H         0.61737425358417      -0.90387851410151      -1.87970021629591
H         0.92872476254435      -1.91507558327575      -0.44229025059142
H         0.61883884635251       0.85958263385658       1.92656880193615
H         0.90479474668074       1.90512218650689       0.50912694876415
H         2.49650209686331       0.44975586645225      -1.45009792745233
H         3.07555903191023      -1.12165618521202      -0.73912549885540
H         2.52624580450216      -0.43803992052192       1.47167365229875
H         3.06482697010981       1.14328133955567       0.75335364496532
H        -0.19972126028819      -1.50690831592542       1.54517519857460
H        -1.43279729860479      -0.23787222531773       1.62595667260218
H        -0.17363036854329       1.49531387524138      -1.51266340558730
H        -1.40803072833932       0.22891032045105      -1.61449781826416
H        -2.31210661068093      -2.47497445737558       0.90168628296302
H        -2.65780466005607      -1.19599172621983      -0.29898069202810
H        -1.33718979187975      -2.39258535784637      -0.60306146574081
H        -2.29589343852147       2.46323006794998      -0.90336117772452
H        -2.66054957072364       1.18527415462806       0.29290024152334
H        -1.34569452143309       2.38228054943047       0.61703570404705
Cl        5.24636115595665       0.88132413226486      -2.86600510022224
