34
C10H18F3NO2 optimized with DFTB in AMS.
N         0.51906609631620       0.03047110573278      -0.38880279977498
C         1.03550057538251      -0.57618547789653      -1.66302094809887
C         1.63545887454026       0.93492567165536       0.07715677177118
C         1.83359117133321       0.53461161374654      -2.32391154785632
C         2.51109603128231       1.23105172872446      -1.14283690148288
C         0.27250698439104      -1.03141122985950       0.64202654149284
C        -0.71309412182908       0.83040386768376      -0.69409441788460
C        -0.77935852983915      -2.04957893302747       0.23569754514824
C        -1.42258060101888       1.39406731115764       0.52963449667684
H         0.20496546163468      -0.94601375126505      -2.26383923905691
H         1.70328388300054      -1.39421700940483      -1.37981960047073
H         2.19743653599377       0.39555938336866       0.84480833756183
H         1.20498159901041       1.83513000642924       0.51521512170380
H         1.17835588336180       1.21675010228259      -2.87293573741692
H         2.56405461490632       0.11801693814774      -3.01797891669517
H         3.50131293772319       0.79943899250940      -0.98356184434109
H         2.61275155244459       2.30452134745032      -1.31030043362042
H         1.23298928743066      -1.52654861118521       0.80830589168610
H        -0.00964668570193      -0.52834489101685       1.56856364333238
H        -0.40278190889781       1.64704198199617      -1.34992207763229
H        -1.39699229474760       0.18409484946270      -1.24962936285433
H        -0.84740469530151      -2.78888116323765       1.03340254140086
H        -1.76257319274065      -1.59918408386661       0.10302054474662
H        -0.49867001997397      -2.56436929470247      -0.68172848426520
H        -2.19708996245526       2.07670527770231       0.18038322884097
H        -1.89952476460972       0.60897843627270       1.11338934614441
H        -0.74343504477439       1.94920100750112       1.17409690675000
C         3.76125915668423      -1.60724583342367       0.82032546405840
O         3.53920831847358      -1.53193808390563      -0.39171227727523
O         3.07578453535372      -1.22642726498680       1.77296986741242
C         5.14833166014647      -2.30525587321400       1.20432292883904
F         5.10513247340856      -3.63239531801817       0.97835394606617
F         5.47540572283196      -2.13835474824730       2.49338615738575
F         6.16661831443995      -1.81699750576575       0.47437094310811
