34
C8H15F2N3O4S2 optimized with DFTB in AMS.
H         0.43677535074577      -3.27748673862124      -2.66530908693756
H        -1.18447495187122      -2.61554521171952      -2.30155867855838
H        -0.40176852309765      -3.72549684312502      -1.15056349869715
C        -0.23242900793071      -2.93062280154238      -1.87968928951348
H         2.65545343311585      -0.23367174965766       0.50993296377173
H         2.41639415597742      -2.46101696533346      -1.11947800140082
H        -1.35400130243821      -0.62344476133362      -0.72707053644378
N         0.37697164961152      -1.80578368993277      -1.19026396213495
C        -0.29816435056518      -0.80567332097879      -0.62980979100140
N         0.56188514758177      -0.07759930595577       0.07932840696369
C         1.80450563471409      -0.64293636235369      -0.00531342578852
C         1.68814927772940      -1.73334588153088      -0.80794418795176
C         0.18467042317699       1.00157630077320       0.98678263551375
H         1.07643801891107       1.60200433214703       1.18335625889819
H        -0.56364770854400       1.62382560118964       0.48772139477132
C        -0.37253689849828       0.39527868360671       2.27946322383273
H         0.36708315660185      -0.29030300996175       2.70047601077501
H        -1.26726240892709      -0.18669624622205       2.04158346728598
C        -0.71554095268472       1.48682197808281       3.29557314711165
H         0.19255846719268       2.04248101188708       3.55416603223182
H        -1.42501985667489       2.19317783670458       2.84955181510717
C        -1.32189472744054       0.87255127839159       4.55550324538058
H        -0.62526931234484       0.16612546818172       5.00551612873043
H        -2.24254505923298       0.34110755694218       4.31355600436092
H        -1.54805208778572       1.65531142479404       5.27914496057941
N        -1.75282093989563      -2.91753421529627       2.99261593148241
S        -1.07904772470029      -3.07881456480787       1.58601721910086
S        -0.81542049956115      -3.25143624316193       4.25346102068788
F        -1.10913341719282      -4.66929575780697       1.23746839215540
F         0.21676104074553      -1.98210723953642       4.25274304240077
O        -1.96763211922277      -2.52073795024218       0.59634624357979
O         0.31515709623576      -2.74086806270436       1.46084041023171
O         0.02950854625823      -4.39019411959669       4.13343974171583
O        -1.59360270928921      -3.06139695347928       5.42814278705875
