33
C7H16F2N2O4S2 optimized with ADF in AMS.
N         0.64792079690658      -0.81222845222596      -0.41436309922839
C         0.50544431194503       0.58253875481393       0.16193057438759
C        -0.63795413648957      -1.19177758881037      -1.14179733851034
C        -0.70168708728596       0.70945150447419       1.07640430204934
C        -1.86579192389314      -1.06253483032980      -0.26060455409819
C        -1.98746210911230       0.33591456680729       0.33960155731636
C         0.96385327701217      -1.79145982645268       0.68077007025974
C         1.77056063332155      -0.83194930680416      -1.39619434159674
H         0.41091903414326       1.26085595720674      -0.70226213905960
H         1.44919852527941       0.80253303387836       0.68437823485803
H        -0.50636259092544      -2.22680174504998      -1.48597730008657
H        -0.69265995819612      -0.50722524357824      -2.00485806921500
H        -0.73521299712022       1.75285242228574       1.43230238889246
H        -0.57454073287456       0.07686528060402       1.97054032952803
H        -1.84531358099078      -1.83388901188033       0.52442124480344
H        -2.73750897215177      -1.30165439424719      -0.89239251968912
H        -2.84363331551380       0.37702160102979       1.03097311354826
H        -2.17835732159005       1.07622621609917      -0.46017769850278
H         0.12181691002042      -1.86393940568770       1.36753394591937
H         1.14592371366746      -2.77440676997586       0.23606981793995
H         1.85494367876244      -1.43714927913159       1.21350784915777
H         1.56558467993499      -0.10884029451546      -2.19548379219747
H         2.70061459994824      -0.57179603863321      -0.87477237417133
H         1.84692431431423      -1.84528901251529      -1.81072195661787
N        -0.78442457235451      -5.41587525219836       1.89307268139238
S        -0.47161612970965      -4.26595303110800       2.95783498505526
S        -0.48985428274689      -5.28516788995098       0.33044002240715
F        -1.52206047613081      -3.00751909376586       2.51052060542560
F         1.17368262060297      -5.09259674476511       0.23363597094726
O        -0.96933231823429      -4.67948700724788       4.24857653110703
O         0.83132726872260      -3.62395421792242       2.83938128109268
O        -0.96939512929519      -4.05430843083145      -0.29705709522301
O        -0.74415764996631      -6.55670289007137      -0.30353604769130
