28
C8H12F6NP optimized with ADF in AMS.
N        -0.10885044545792       0.13010606601519      -0.65983297833200
C         1.26956842896620      -0.36839674141209      -0.92208935966341
C         2.15735170078407      -0.18121268476383       0.30925200449459
C         3.63319575084667      -0.22798274370159      -0.07691249013273
C        -0.52038263803036       1.27848453426613      -1.23349193060460
C        -0.87879559215954      -0.51103238056733       0.25198828715092
C        -1.75400311902964       1.82136150477080      -0.90965911736430
C        -2.11071396525276      -0.00560764447055       0.60709194956664
C        -2.55668121015256       1.18211654753160       0.02134045201656
H         1.18198041944367      -1.42139146609576      -1.23317540071802
H         1.65535647145691       0.22732622777878      -1.75821951686284
H         1.92310658320426      -0.95641865409074       1.06049825931078
H         1.92824839625237       0.80379582084954       0.74430734365181
H         3.90120356467764      -1.16648704625955      -0.58895617718068
H         4.25778580685612      -0.13752394529613       0.82319533371235
H         3.86954170907541       0.62318872127521      -0.73300483197086
H         0.17937279227869       1.76639828912167      -1.90906313761217
H        -0.46028020875415      -1.41939842145349       0.68093665349069
H        -2.03227090681894       2.77054658136060      -1.36625243007106
H        -2.70920965099385      -0.53201158540322       1.35044160449146
H        -3.51780915105258       1.61028476639404       0.31041200361693
P         1.82444444435531       3.76640301622796      -0.43078550789304
F         2.14375610742225       2.46717424845089      -1.47393556479565
F         2.76934970981993       4.72278443509520      -1.35459409746791
F         0.49546596842063       4.11835802550372      -1.37608107976285
F         1.46607002283289       4.99388495199933       0.58204104541126
F         0.83848710542797       2.73846100933205       0.47650505259168
F         3.10535095838133       3.30104732234159       0.48879111492645
