39
C9H20F2N2O4S2 optimized with ADF in AMS.
C         2.70420580768249       0.35051200837994      -0.43867124945398
C         1.54658877980357       1.20728438435522      -0.94473766457964
H         0.48482029980405      -1.16287513147273      -1.60889187924629
H        -0.07793122996284      -1.51455865243916       0.06885458707146
H         2.56435003054485      -1.82935535172534      -0.75337082622927
H         2.20096931244754      -1.32019384461859       0.91127762274597
H         3.16997357068513       0.77727237496628       0.46241448530024
H         3.47077279894586       0.29525931172697      -1.22377786640812
H         1.55614566469965       2.25935419802982      -0.62913867477096
H         1.46208405818965       1.15931796704632      -2.03544369114355
H        -0.71297195356500       0.34089905126022       1.46728371840617
C         0.12594009274552       0.90231956123578       1.04205907733226
H         1.04808839437699       0.65188170515647       1.57827519315213
H        -0.06724640141132       1.98008480759094       1.11289560850641
C        -0.91854096662263       0.97462556139253      -1.20780171177571
H        -0.98813162251260       2.06212507143218      -1.04980592036513
H        -0.64636155146064       0.81596177910002      -2.26034796811095
H        -2.33329650616936       0.09038615456075       0.21357166707617
H        -4.12879394137549      -2.42846761001363      -1.99201676399291
C        -2.51661259390846      -1.00344550361428      -1.66161556614048
H        -2.39051248395916      -0.78829676402294      -2.73570951568683
H        -1.78170369898084      -1.78812151277527      -1.42375493730393
C        -3.92389134358933      -1.52877061015500      -1.39435887998419
H        -4.68097909727658      -0.77127042170294      -1.65363970177087
N         0.28892128122271       0.54440262963591      -0.39785972358803
C         0.61825632467992      -0.92912310016953      -0.54520885818668
C         2.08928615160666      -1.04535087391469      -0.14853542101173
H        -4.06041847662258      -1.78929456488562      -0.33203384917311
C        -2.23302321367774       0.27665795233667      -0.87045416668058
H        -3.03041095484219       1.00415730939634      -1.10651921935046
N         1.50433544315801       0.26615571038068      -5.51695090146450
S         1.48388979450197      -0.99810323042902      -4.54811946196222
S         1.38088670617486       1.75118384732742      -4.92258190001420
F        -0.12712015745625      -1.07127169796657      -4.04007453135428
F         2.83014567463386       1.96064321016034      -4.12804130396703
O         1.65554236363829      -2.20378027053649      -5.32393470180619
O         2.17988461783896      -0.84290780096101      -3.27104630053931
O         0.40739294172303       1.91856866911664      -3.84458011793833
O         1.41877294948947       2.69355608641537      -6.01425274879135
