60
C16H30F6N2O4S2 optimized with DFTB in AMS.
N         1.01157925814053       1.57589934016012       0.36648981444178
C         2.00238845746048       2.41564727886916       1.11688895683572
C         0.27633462611810       2.58586969618434      -0.45788303470101
C         1.71177043027950       0.60475441353862      -0.54466852291581
C         0.09756641006313       0.89049196287991       1.33823766459520
C         2.47529820207301       3.46799446504825       0.12176284688391
C         1.33321532596067       3.59743041405767      -0.90015582780726
C         2.42297326851636      -0.53547702591570       0.17814847214130
C        -0.98191226159219       0.02191628911021       0.70592798030721
C         3.33600186832195      -1.28777599960632      -0.79548338163800
C        -1.86398908743544      -0.53470595401379       1.83239930124613
C         4.00518187145377      -2.47213120125144      -0.08821404082834
C        -2.89937092667508      -1.52343650228728       1.29099940338123
C         4.97744932016105      -3.19344734059524      -1.01832419223909
C        -3.76292133495757      -2.08414339339045       2.41938850358811
H         2.79660412226124       1.78666345893465       1.51643106792579
H         1.47244651950588       2.87671437475338       1.95183338355406
H        -0.46893198093695       3.05625882373936       0.18732169815888
H        -0.22630418163195       2.09271223443001      -1.28963475317919
H         2.43003397785192       1.18398723536828      -1.12958444937342
H         0.95950365817196       0.20447837585107      -1.22912750864546
H        -0.36320473910092       1.67630218344523       1.94126475237097
H         0.72991259831862       0.29048448900117       1.99372195093428
H         3.40110273244485       3.16054981199479      -0.36909483071651
H         2.66213177440524       4.41139419484491       0.63640086605550
H         0.90895053120080       4.60271427737297      -0.90393839122728
H         1.68626462908941       3.37441003613193      -1.90900043275091
H         1.69048230353744      -1.23229527541754       0.59003478340360
H         3.02611398492341      -0.15417523380912       1.00359858344440
H        -0.53474715949071      -0.80869972509482       0.15308404546374
H        -1.59156413157270       0.60584187536014       0.00936830277076
H         4.10219389871160      -0.60424901915154      -1.17767049860559
H         2.75045373662927      -1.64618877207451      -1.64962795203874
H        -2.37127559925890       0.29414281025777       2.33614051044297
H        -1.22968474331016      -1.03319539771907       2.57134202059666
H         3.23492421751189      -3.17067771247674       0.25345283408158
H         4.54086516444799      -2.10876819642623       0.79390036804698
H        -2.38530474988660      -2.34599200447839       0.78200752367543
H        -3.53718565061987      -1.02091379689924       0.55515950282629
H         5.43429126614726      -4.03392833007985      -0.49608556836744
H         4.45807377811365      -3.57267457052929      -1.90001376095673
H         5.76812858227489      -2.51649943005968      -1.34510227240597
H        -4.49055483936453      -2.78956709706425       2.01779086264104
H        -3.14237730118768      -2.60177091230933       3.15147942876783
H        -4.29906839153515      -1.28029904900922       2.92530136200976
N         2.38531851659236       0.60227867135967       3.55958499332509
S         1.15850910579694       1.05193175559860       4.49919748169907
S         3.15727559271578      -0.75760841062111       3.94019420635383
C         1.76224843081099       1.47167521753956       6.22647788362584
C         1.98228319931406      -2.20338065451615       3.68470369097027
O         0.72006077683217       2.32726043225571       3.96069123101618
O         0.14781655646271       0.03109872966254       4.66924302324493
O         3.57522555977886      -0.85099295605109       5.31306170620254
O         4.14042788759030      -0.94283955385599       2.89911809742365
F         0.97355190414121       2.41590485464513       6.71463746166777
F         2.99811513259238       1.93324166862110       6.17289301985590
F         1.70902886557287       0.41863063137218       7.01164698194340
F         2.67216384387479      -3.24236144484337       3.23971782535903
F         1.07818046164567      -1.88627627279893       2.74864290939669
F         1.35487578513942      -2.54206285724277       4.78784790312150
