32
C6H12F6N2O4S2 optimized with ADF in AMS.
N         0.31512529066178      -0.87685962450692       0.94101561191800
C        -0.46507224418891      -2.01281717897545       1.54623669845202
C         0.71479240627128       0.07472734849957       2.03283376392297
C        -0.52229596907901      -0.16582728828413      -0.07131447295014
C         1.55273457367915      -1.41625177529975       0.27835597688454
H         0.18875419603158      -2.51603739460662       2.27236265955169
H        -1.35782455038771      -1.59295347573539       2.02713903257871
H        -0.74024628317756      -2.71285801443487       0.74837103331053
H         1.31990747366833       0.87640995900218       1.59087481871739
H        -0.19800742473251       0.48981000667436       2.47977382260939
H         1.29676184441486      -0.46973485263523       2.79215801588394
H         0.05826625661164       0.66733814134454      -0.48726652772329
H        -0.78878428979797      -0.87230354053510      -0.86707984845451
H        -1.42888736208885       0.21275842644243       0.41727608916019
H         2.10150559383350      -0.57452935631675      -0.16238862694505
H         2.14677989731349      -1.92095272326952       1.04936629636066
H         1.25225017069146      -2.13904204261059      -0.48980650329308
N         2.22509185022736      -3.11815036786992       2.89725385841473
S         3.10977390004997      -2.45267471199286       4.06957957117557
S         2.47782566871923      -4.58666344140455       2.25366963385025
C         4.71297852232818      -1.84969078971120       3.26005193363960
C         1.96375321075561      -5.85767780881933       3.56866750630946
O         2.43242377409505      -1.19073164684641       4.38542185542121
O         3.54359863449436      -3.34382349418674       5.13192177058348
O         3.86686961425466      -4.90503269180874       1.95830163179381
O         1.45021299739727      -4.71232303041307       1.21852451776228
F         5.26234429589175      -0.89666640875393       4.04893406612529
F         4.44765105518227      -1.28416451808442       2.04266468617894
F         5.60397303807667      -2.83792269479512       3.08992229241501
F         1.68217460776558      -7.02283943451499       2.93556059116875
F         0.85288965769653      -5.44572999119414       4.22798798486157
F         2.94668844214097      -6.07880558995735       4.45650235751611
