30
C8H20ClN optimized with DFTB in AMS.
N        -0.03812552590005      -0.03785532295255       0.08099556542482
C        -0.88458949851950      -0.11173134517365       1.32760673304830
C        -0.88624036586156       0.13380827327410      -1.15656595639831
C         0.73684823758163      -1.32770695273998      -0.04206715702239
C         0.87656923243891       1.14968786414768       0.19617164592915
C        -1.97778358701144      -1.16955422830058       1.32110782940103
C        -1.88847503326017       1.27474276306741      -1.10008539710745
C         1.71711690374225      -1.38091927287076      -1.20135162156680
C         1.92297079155201       1.06567865747735       1.29910728044360
H        -0.20095663689649      -0.30776063651436       2.15733065430275
H        -1.32175740744257       0.87962327237161       1.47415465288986
H        -0.19553791079786       0.30267627057330      -1.98509000912156
H        -1.39965832028279      -0.82324439227616      -1.32321299004551
H         1.25387978415633      -1.48443612745853       0.90709799221597
H        -0.00934457798587      -2.11705836819894      -0.18716931918013
H         1.37226116432373       1.27054673404571      -0.76975557884596
H         0.24486882026291       2.02441286970922       0.36731855343647
H        -2.49938214255349      -1.10113213840302       2.27596047065072
H        -2.69573193868235      -1.01196065645493       0.52039327441335
H        -1.57249537992190      -2.17256337607967       1.21722859439449
H        -2.39530595527497       1.30032188525283      -2.06490829104682
H        -2.64272950830077       1.12083362677811      -0.33089213516209
H        -1.41196855475687       2.24224716568452      -0.94183163992045
H         2.22086694460047      -2.34620567665327      -1.14733858034114
H         1.20106472351476      -1.32868560082642      -2.15818840974333
H         2.47358005700603      -0.59815350735317      -1.15584964506631
H         2.49481872259762       1.99361478754777       1.27798922644101
H         1.46984194753938       0.96884171963968       2.28402190738628
H         2.61300032591231       0.23901819299656       1.14315633363415
Cl       -1.67420204077964      -2.97179642430986      -1.35368351234373
