47
C13H13F18N2P optimized with ForceField in AMS.
N        -0.00025423962415      -0.54450466057460      -0.36279785101229
N        -2.08819599451741       0.13598357078293      -0.01573340765368
C         1.35966073598262      -0.62477842977963      -0.89441822198503
C         2.40064074091120      -0.39790601544291       0.20832121352911
C        -0.93247215142628       0.38157983937703      -0.66206359261458
C        -0.58890112915715      -1.40463954507473       0.49348902183829
C        -1.88426513507547      -0.98017179949927       0.71055540007054
C         2.33594966570853       1.02031244827523       0.77174377685946
C        -3.31987784500689       0.91094710813032      -0.09020127694482
H         1.50239858889916       0.12855080463309      -1.70058924041087
H         1.51483706928529      -1.62912187205198      -1.34424515611741
H         2.24935558209535      -1.13062838603171       1.03015171725962
H         3.41384560982727      -0.56709031195656      -0.21594428010169
H        -0.77278532149897       1.21619631547040      -1.33254294406116
H        -0.11556807387407      -2.27872558448196       0.92179170925935
H        -2.62260003540144      -1.45377014787589       1.34470854026556
H         1.35097179694561       1.20472130967459       1.25035033096502
H         2.49653573855675       1.76465002554704      -0.03711198832262
H         3.12937547894055       1.15144448298590       1.53730581986421
H        -3.19470475517811       1.77655411984535      -0.77548931172977
H        -4.14224987478230       0.26877959946000      -0.46971399442113
H        -3.58537241211237       1.28756739765545       0.91986545030274
P        -1.63884999732553       5.54541023728308      -5.28350711989972
F        -0.95438214016110       6.50072162634284      -4.02131763350523
F        -2.92158286135388       4.59826625619369      -4.62953394477802
F        -0.51657003802499       6.65117078067318      -5.97499783714214
C        -3.08499142872081       6.80740041454173      -5.04951680962819
C        -0.54268715178889       4.31237438777179      -4.27068595393747
C        -1.54112261374555       4.81675873777056      -7.05906834861789
C        -2.79575766503034       8.25601205359900      -5.50055903118604
C        -0.61552665843690       2.81234183932213      -4.65274527561225
C        -2.05427496223039       5.68569612872374      -8.22260950304034
F        -3.41794413338151       6.86817708301480      -3.70122006747041
F        -4.21781160698198       6.37342897338277      -5.71981483668817
F        -0.89028709696345       4.38163866937182      -2.92480681270842
F         0.78354356280777       4.70003436031272      -4.38905080406115
F        -2.26431503610525       3.63753823087594      -7.08073001592440
F        -0.21997219932139       4.51800877305810      -7.34934250602041
F        -3.89101411392129       9.04616277142907      -5.19975678045676
F        -2.58491343116583       8.32800474645189      -6.85974198086064
F        -1.69806288423295       8.78241518241779      -4.84493756276486
F         0.07376357879788       2.08163704440933      -3.70120028352981
F        -1.91580860966823       2.34479838918703      -4.68077033676263
F        -0.01409722639840       2.56199160383964      -5.86851643562192
F        -3.36155821680849       6.07617651228909      -8.03044270866274
F        -2.01027916412196       4.93696419759091      -9.38567032439578
F        -1.24998204151425       6.79429220137925      -8.41202246336345
