18
C4H12ClN optimized with ADF in AMS.
N         0.00489800000922      -0.01283870279158       0.15549726274641
C        -0.96970556965864      -1.13785539097184       0.15800899969228
C         0.50375061520362       0.24572159147213       1.55263163764143
C        -0.64925012907020       1.24088060716114      -0.36243956937545
C         1.17813755248328      -0.34773242335572      -0.72689474333448
H        -0.47346164009476      -2.03580954421547       0.54841644563208
H        -1.82054964614658      -0.86873957146213       0.79732443484182
H        -1.31150771586945      -1.31294177018729      -0.87024227181786
H         1.19098740266352       1.11933989374352       1.48062008759732
H        -0.36583177545286       0.45023018461412       2.19116939580419
H         1.03130894235607      -0.65246295229656       1.89859980911576
H         0.13665795720087       2.03016221872520      -0.34622739283325
H        -1.01028588251843       1.04213416362524      -1.37998157870542
H        -1.48817099642695       1.48702656024389       0.30169460062186
H         1.86723538809041       0.52607709189820      -0.67393480669629
H         1.64416072476188      -1.26333403451738      -0.33954479006658
H         0.80194525957442      -0.51080448979329      -1.74530789551502
Cl        2.29854006079460       2.60774512080783       0.14728708175122
