37
C13H18F3NO2 optimized with DFTB in AMS.
N         1.87860888860355      -0.62161700906062      -0.03197759179267
C        -1.82717510359460      -0.16020916674575      -0.57057182375617
C        -0.46775162460113       0.13769880280941       0.06818159779063
C        -2.97018520845438       0.27395672829258       0.35117803797341
C         0.67187908080286      -0.36489977223347      -0.82904175855701
C        -4.33275254382177      -0.06133099498276      -0.26253995594153
C        -5.47503268961776       0.32914908963840       0.67382015757289
C         2.23153956881406      -1.90603942988162       0.23543665013825
C         2.48982855382998       0.42118986200467       0.58878584224578
C         3.44994156788671      -2.12664754354602       0.93337528159281
C         3.59242250923072       0.22589668217557       1.36468920582420
C         4.09744713389784      -1.08268639696707       1.52403585475933
H        -1.90338312562020      -1.23569747793698      -0.76025354626939
H        -1.90499958369532       0.35909332299622      -1.53213956931553
H        -0.35832882472628       1.21344363262425       0.23794141698027
H        -0.40663133387149      -0.35989548720800       1.03930374454885
H        -2.86941790737900      -0.23675601995622       1.31444360041669
H        -2.90461755798288       1.35215643827464       0.53599326830604
H         0.91562168932877       0.37030445198070      -1.60200021080392
H         0.39087562634269      -1.30453425393089      -1.30942017544012
H        -4.44465973102713       0.46709811656254      -1.21581992672143
H        -4.38341338704734      -1.13579710328365      -0.46770418463282
H        -5.44510114189502       1.39828015125792       0.89024629622222
H        -6.43456972239536       0.09526991131464       0.21166941095391
H        -5.39996893680992      -0.21735415814375       1.61462822818538
H         1.85634625173899      -2.65437213428169      -0.45404948870666
H         2.08090632357598       1.40458205385176       0.39106582221290
H         3.79666566461134      -3.14650798983749       1.03563592285322
H         4.08338856459561       1.06918189562637       1.83146431488917
H         5.00914882279422      -1.23964707991897       2.08794150241761
C        -0.13108416158182      -2.95800907628473       1.05746186010061
O         0.90125211816774      -2.44840632305774       1.56448811120853
O        -0.39412336714334      -3.18562803097761      -0.10488234040676
C        -1.24319661914932      -3.27104505309216       2.15029477981345
F        -1.76796720504858      -2.11486828620774       2.59676458027600
F        -0.74932774777827      -3.92189706727199       3.20689840369469
F        -2.24410457988014      -3.99706582130272       1.65291510006711
