38
C10H22BF4N optimized with ForceField in AMS.
N        -0.87795900002188      -0.16481287682184       0.04480999872605
C        -2.00971299884610      -0.27462128105381      -0.92586637410556
C        -1.21316662841537       1.01535114773031       0.89981495142924
C         0.39728564208735       0.08301720659844      -0.70347849604393
C        -2.84518722640287       0.98725570692576      -0.82856291038007
C        -2.63393145283013       1.44603639369050       0.58661628494844
C        -0.80873279289405      -1.39593959667032       0.89633947364606
C         1.65787555548527       0.18625294759033       0.18927380687276
C        -0.44605106157905      -2.68280603462761       0.13263561150470
C         2.87174147715004       0.63190700315717      -0.63570993961838
C         4.12664005717160       0.72535271044756       0.22688910250336
H        -2.68703212157174      -1.12718559362334      -0.68718311542227
H        -1.67396772779210      -0.42389438146601      -1.97764820522492
H        -1.11571249763356       0.80962857396525       1.99068389292497
H        -0.55784067144911       1.89069496573420       0.68409192585894
H         0.56997575133541      -0.71933955240098      -1.45502357862435
H         0.30194146703759       1.02501411282524      -1.29226991588156
H        -2.45914188551233       1.75265894644066      -1.53762263368737
H        -3.91948492744068       0.79153368491171      -1.03799024012892
H        -3.34600505721725       0.92491362610150       1.26427416724370
H        -2.76582943973863       2.54626568158806       0.68151172203280
H        -0.07561332077361      -1.26565908611935       1.72260976978678
H        -1.79050752014706      -1.56350285207281       1.39385528716359
H         1.49821202476492       0.91123827069872       1.01468216219141
H         1.88743963899841      -0.80297686581496       0.63695344546990
H        -0.56026204910717      -3.55321141928384       0.81226819986605
H         0.60895649291806      -2.66375095809313      -0.20729828953182
H        -1.10902318455591      -2.84151010039377      -0.74211948632697
H         3.05301724726151      -0.09671608951672      -1.45586832906406
H         2.67276637589481       1.62851999247783      -1.08662004573529
H         4.36225053281473      -0.26299934309683       0.67626545401088
H         3.98427574104908       1.47277362431592       1.03624894285830
H         4.98580780290476       1.04247746578555      -0.40153449497824
B        -2.16184586931414      -2.22669203234221       5.16153627723828
F        -2.13761311490314      -3.62144879650064       5.42869377251060
F        -0.84849316890364      -1.69878001801863       5.27914682176324
F        -3.01749771247410      -1.58087595568436       6.09315892163113
F        -2.64530376634991      -2.00582374708354       3.84536531057251
