40
C10H19F2N3O4S2 optimized with DFTB in AMS.
N         2.13939206614700      -1.02291645205151       1.00657343116096
N         3.44834757398755       0.68395678240248       1.10314580991248
C        -0.16397692976566      -1.81220185997344       0.62566911644892
C        -0.61259519147599      -0.57917526702278      -0.16407227492402
C         1.32804388387442      -2.10053987946256       0.45164170078159
C        -2.11476652271879      -0.33007042819924       0.00337407787315
C        -2.56285225724329       0.90321845871842      -0.78735124338486
C         2.64872797556780      -0.01422172643285       0.30227440944477
C         2.62340656496312      -0.96612839224859       2.28464069958741
C        -4.06003923229186       1.15669163905504      -0.62112499173387
C         3.45518911352904       0.10726944635454       2.34286597432814
C         4.37252598666650       1.71180914100717       0.65220403149218
H        -0.38287008713952      -1.67313917743507       1.68896572057853
H        -0.71474277420508      -2.69121345259878       0.27950832538818
H        -0.37992755847597      -0.72271480298619      -1.22458267184230
H        -0.05753635142558       0.29895471872906       0.18450053994124
H         1.59540094875137      -2.20525666974799      -0.60353706499565
H         1.60255472404390      -3.01870969409495       0.97617656161120
H        -2.66943358124223      -1.20862512667789      -0.34265321139147
H        -2.34301313697706      -0.18779713686714       1.06527778068681
H        -2.00381796990176       1.77952967107944      -0.44154310489028
H        -2.33321849693369       0.75756978091487      -1.84816397734424
H         2.46993773587459       0.18162806324852      -0.73996015421597
H         2.35981792277916      -1.69575170470336       3.02970803514937
H         4.05415357722089       0.49236125949747       3.14912017863739
H        -4.30545360290036       1.32429371105616       0.42846268152451
H        -4.35479181798103       2.03727213648336      -1.19192476208647
H        -4.63440737440702       0.30157215423348      -0.97968457972151
H         5.28727026644057       1.21753821523067       0.31305189140975
H         3.92371596743325       2.25850560324061      -0.17487451469407
H         4.59356523397311       2.38530466902736       1.47781602105754
N         6.43958260494824      -2.03597059001244      -1.42414908469009
S         7.53369782808667      -1.09110036642784      -0.72011926364891
S         4.99452504143799      -1.87797107701026      -0.84022832502917
F         7.78405389156803      -1.82458777053116       0.69830656399917
F         4.51150697202599      -0.38341219961460      -1.41842377456397
O         8.75842538435966      -1.23141085992067      -1.42629815100942
O         7.08344965329906       0.22068086435153      -0.35492872248768
O         4.85969585124969      -1.71575417465634       0.58258387544588
O         4.08109930105726      -2.76333681935455      -1.49273910900524
