43
C11H17F6N3O4S2 optimized with ForceField in AMS.
N         0.98353382789796       0.36129311105542       0.48009853562829
N        -1.01514797051138       0.36328977641724      -0.48939421078032
C         2.23160804941937      -0.11496459814828       1.06893460552951
C        -2.26798939919109      -0.11073393581254      -1.07197647020137
C        -0.01720878223411      -0.39831859014614      -0.00300555598019
C         3.39507067350744       0.05532713941503       0.08947009512770
C        -3.42875702936683       0.06439529420654      -0.08719676769540
C         0.60979673915475       1.64290625355995       0.29151331764445
C        -0.63493701497495       1.64419065548054      -0.30695135579833
C         3.20204936557521      -0.76590067057580      -1.18456110547595
C        -3.22080722468784      -0.74711413589272       1.19145502224760
H         2.13727089521274      -1.18710804618655       1.35035471039677
H         2.44340918407657       0.45648219046904       1.99874058957167
H        -2.17647772482585      -1.18381365717290      -1.35093715945297
H        -2.48074145221867       0.45827973812482      -2.00283563055861
H        -0.01937686903405      -1.48141332709188       0.00021957265596
H         3.51261084510085       1.12797732763094      -0.17609163668887
H         4.32302414173165      -0.28126807232501       0.59323864946860
H        -3.54377032176386       1.13892524601260       0.17180593891408
H        -4.36700240854582      -0.27356903718906      -0.57720962182612
H         1.19680653809057       2.50901414400335       0.56867487749966
H        -1.21751294114404       2.51194648681266      -0.58758937458659
H         2.33127556879735      -0.38847605907429      -1.76149912206849
H         3.04120881846206      -1.83649907250140      -0.93603124530615
H         4.10687816228817      -0.68049676380891      -1.82184696449521
H        -2.34687704157856      -0.36175021685606       1.75845206752393
H        -3.05591748778374      -1.81864077146504       0.94908646036402
H        -4.11970711009506      -0.66203187313623       1.83666577956064
N         8.69100561011983       0.22504478465897       1.16519373142094
S         8.39090675346197       1.43099365670827       0.09666994552700
S         7.97411237862334      -1.24602089375881       1.07242617645873
C         7.10243939903595       2.47903362249948       0.73958406130913
C         9.08628168001449      -2.39454852850404       0.29131402899461
O         9.63692236624994       2.25167638435115      -0.08035632911663
O         7.96512840925897       0.86999434941801      -1.23196320523667
O         6.70385721603066      -1.17293805417398       0.27336308187472
O         7.66884258136613      -1.73302710724343       2.46072954563181
F         6.84220181072363       3.49542875759985      -0.15931658389134
F         7.50619809294814       3.02350216104481       1.94357120446011
F         5.95406194218956       1.73993799360513       0.93822348136557
F         8.48232264267983      -3.63447509234944       0.20888177501628
F        10.24552836561884      -2.49731308128309       1.03611213238488
F         9.39589238081984      -1.95074167107820      -0.98025140991743
