42
C12H21F3N2O3S optimized with ADF in AMS.
N        -1.23107544211827      -1.93375909449897      -0.26130206690742
N         0.91028685054245      -1.95438898979833       0.06376261679145
C        -2.66622773454234      -1.77810689220628       0.02260147445665
C         2.20580803863241      -1.84097970518302       0.75340065921396
C        -3.15094251265515      -0.38842329598499      -0.37858170094304
C         2.85834570955649      -0.49263313205372       0.46326751925675
C        -0.27743680452985      -1.89665540098298       0.67926671078822
C        -0.63925884716558      -1.99445543521622      -1.50735762285209
C         0.71131647141777      -2.00763086525192      -1.30195377007058
C        -2.40831772967320       0.73379505130389       0.34486696808391
C         1.98091061867583       0.69192474534939       0.86592632974408
C        -2.94888078195924       2.11200418930050      -0.02388919384118
C         2.68541700007941       2.02833497628232       0.65197877944829
H        -3.20039638650270      -2.57717807943990      -0.51395902561241
H        -2.77762914400402      -1.93220402057929       1.10615919977318
H         1.98277333918575      -1.94104949413879       1.82618667283969
H         2.83124020341432      -2.68603349375254       0.42724996741135
H        -4.22822487045786      -0.34268206703881      -0.13904480925710
H        -3.06736821102046      -0.26154809349577      -1.47409008233721
H         3.13177732580551      -0.42296994995038      -0.60637532194430
H         3.80549073285461      -0.46848225489904       1.03036536096185
H        -0.46319529697509      -1.77198658417485       1.74918110662732
H        -1.22064774273499      -2.03564640724962      -2.42005210083908
H         1.53644647188282      -2.06357833124337      -2.00138672987801
H        -2.47201869362840       0.56654930639188       1.43367062454573
H        -1.33427945438961       0.68838483352644       0.09133485505082
H         1.04848857026676       0.67607886499371       0.27410659028789
H         1.68059744378260       0.57279205207579       1.92074839662990
H        -4.01903354141818       2.19536730650995       0.22348876757596
H        -2.83613122694973       2.31056428870589      -1.10238804754577
H        -2.41647285107705       2.90211178295628       0.52532187986209
H         2.94929401876471       2.17696600266201      -0.40821829894270
H         3.61442684036490       2.08148548750157       1.24090835167228
H         2.04444053247349       2.86587329675833       0.96354104643913
S        -0.64027602132130      -1.13016791268555       4.14709803447816
O        -1.74896188232428      -1.19542899468878       3.15502827167713
O        -0.83064576215464      -0.22059059067941       5.27061568362556
O         0.69377128672284      -1.12194993655107       3.49630056648597
C        -0.70025942205439      -2.84541986343892       4.90261183466329
F        -0.59543640703123      -3.80260718365760       3.92454916597840
F        -1.86643522056110      -3.06057279030604       5.56167152869565
F         0.32106533362602      -3.03671388977181       5.77493781960623
