55
C15H20F18NP optimized with DFTB in AMS.
N        -0.59267130065444      -0.02725973827091       2.32329526921114
C        -1.45391991720661       0.26034251073943       3.52373052099453
C        -1.45472558831170      -0.31319144411845       1.13319295155519
C         0.22384755561004       1.21778951682761       2.07268422136703
C        -2.49252443935314      -0.81389689378723       3.80516355238571
C        -2.47435315917770      -1.41745198996437       1.38885179314738
C        -3.36528743962940      -1.06916248862173       2.57945989475291
C         0.32093563408495      -1.16115238802322       2.62271408829305
C         1.18777741008880       1.14356804652923       0.89179258234533
C         1.90483578684450       2.48799993557244       0.75494881558240
H        -1.94486910290299       1.21818036910656       3.34263501947177
H        -0.78154590440857       0.36635039815181       4.37358844007327
H        -0.80002627471492      -0.58983181114523       0.30471735360071
H        -1.96767042611998       0.62015103896158       0.88564876881237
H         0.77989269235301       1.41150764083014       2.99108911898959
H        -0.48671609617409       2.03297429907410       1.92244990422342
H        -3.10474224062418      -0.45156903344987       4.63465296126829
H        -2.01543364638363      -1.74418994902854       4.12634588492195
H        -1.96791350440855      -2.37125413408543       1.56185130989966
H        -3.07872724763047      -1.52013234895844       0.48384917740188
H        -4.05615449035637      -1.89173933820432       2.77667031676653
H        -3.95310028895128      -0.17506800215263       2.34979267089508
H         0.87855780380962      -1.42307255918037       1.72660019808552
H         1.00436495234867      -0.85069493361392       3.41108207812265
H        -0.25554474401636      -2.02037658880613       2.95470807139229
H         1.92982468015331       0.35621856680754       1.04996094263473
H         0.65121580256415       0.92659226717343      -0.03638609313777
H         1.18497611844117       3.28893181878549       0.58784664110845
H         2.46852885203441       2.71138508548207       1.65929479808849
H         2.59265877167166       2.45076121960240      -0.08890915621075
P         0.33929932480230       3.33196704300351       5.94588156264680
F         0.81152538213652       2.56565896165385       7.35329092244934
F         0.47391842415112       1.82267698111482       5.11624914633746
F         0.18785377895077       4.81188857491482       6.69482912662221
C        -1.50950996482806       2.90575492622487       6.44477896035884
C         2.24926809440204       3.67446820403076       5.66502138934669
C        -0.23284915296878       4.08966296516411       4.16779032840653
C        -1.81661994506717       2.60535062991066       7.93749800838300
C         3.13339222756449       2.49759693996359       5.17296119758615
C        -0.54942865446412       5.59090349791976       3.93866183560823
F        -1.98159897711964       1.82679342010435       5.76709093924126
F        -2.28471292372000       3.94551280107508       6.09466473249060
F         2.77142126465961       4.06916976166373       6.83600023986515
F         2.43848424619131       4.68560027757409       4.79694610613484
F        -1.33184974226208       3.40938290215511       3.74337353254238
F         0.73239559905585       3.77855779393229       3.26379893673172
F        -3.14037477914761       2.59796133241032       8.12859619593418
F        -1.29286344422638       3.51052425443400       8.75066477784970
F        -1.35998882610960       1.40183936450788       8.27893714520866
F         4.41594156022161       2.85442172071180       5.13710922684398
F         3.02581313161961       1.43248808126438       5.95861222289015
F         2.79562673850348       2.11842055046063       3.92804668579884
F        -0.78660330669506       5.79968901616082       2.63609320936986
F         0.46641021333718       6.36545742167566       4.29503541869036
F        -1.62750852276736       5.97359971093599       4.61080523542018
