52
C14H18F18NP optimized with ADF in AMS.
N         0.87288097697248      -0.52082436484702       0.75701877741381
C         2.23953709724380      -0.45302654136524       0.09909354792010
C         0.78287333727826       0.83523168604712       1.43465464797167
C         2.35799420491048       0.97203222930122      -0.43777412391648
C         1.42695382399543       1.82503303639791       0.46254462515759
C         0.80256380415353      -1.62589447956097       1.79360440073182
C        -0.18512508931057      -0.66884362088181      -0.31796094150283
C         0.94941345766420      -3.02364783231280       1.23402314231273
C        -1.60398288480024      -0.81237779001079       0.19681709058264
H         2.31439951194284      -1.23938153761202      -0.66157074406493
H         2.96791230993236      -0.64123362735544       0.89517392748253
H         1.36367611140171       0.74878450772777       2.36157810916804
H        -0.26344708211070       1.04460459809374       1.68664239902803
H         2.05483136192408       1.03362130007584      -1.49312941317494
H         3.40517660535261       1.29988423030049      -0.37904998568024
H         1.98640731404639       2.58141205697786       1.03099196925702
H         0.67373028621596       2.35610892055917      -0.13763857520034
H         1.60853991713106      -1.42251334014274       2.50560060279420
H        -0.14963565095843      -1.49071259519607       2.32665495020918
H        -0.09015909355695       0.21512460789477      -0.96483449491411
H         0.10624711641197      -1.55018534136233      -0.90677481941322
H         0.98486930270035      -3.70798203004254       2.09504773476151
H         0.11262796799243      -3.32675214243460       0.58785520624026
H         1.90057347021495      -3.15296961139456       0.69859735673935
H        -2.27670051606493      -0.85527231679121      -0.67277999249398
H        -1.74713736845935      -1.73718416636633       0.77176228461014
H        -1.92128731875552       0.04121934501652       0.81216778402480
P         3.87212724260294      -2.00801156759316       4.88422367025048
F         3.00863813039024      -1.54946419586100       6.22724191581751
F         2.44852132292686      -2.57016798626605       4.16370488549604
F         5.31326336867821      -1.44954498416876       5.49231253765229
C         3.43284308796094      -0.13895180307662       4.29308094566333
C         4.20092450737884      -3.70844513339844       5.84670874724098
C         4.75405237851183      -2.59114948731788       3.16686773082372
C         4.05430933131339       1.05706098985479       5.08681803742955
C         3.07567178167850      -4.78474399069576       5.85233125060423
C         6.21799689378403      -2.16426325885870       2.87359183456508
F         2.05636923200512       0.03668735797057       4.39705245637792
F         3.73153010062812       0.18406045958917       2.96672180540236
F         4.40754928332852      -3.40401509002488       7.17342050870352
F         5.35131299518190      -4.34037443399318       5.43123813264043
F         4.02424862844418      -2.13600542171274       2.06237609931761
F         4.71678572365297      -3.95774984007662       3.04101688669902
F         3.45050581664669       2.21695812403789       4.65723178203366
F         5.37448532467846       1.17952080557119       4.83194645484225
F         3.86322056667482       0.97180064892010       6.41314236805411
F         3.45108870776578      -5.83446126541508       6.63544655396045
F         1.92141815883855      -4.28637306515227       6.35509758888533
F         2.82484896288665      -5.27455463869997       4.61116119558307
F         6.58749440793921      -2.61087942246468       1.63310812256013
F         7.08062137284305      -2.67941273082168       3.76964831419050
F         6.34034206139199      -0.81450170096218       2.87001920016210
