24
C6H9F3N2O3S optimized with ForceField in AMS.
N         1.12343989780892       0.03652458104243       0.10604456852936
N        -1.09822935534611      -0.00244139593633       0.13230394514144
C         0.02590732173181      -0.74466543279725       0.11825995178789
C         0.68045780770398       1.30890224558847       0.10933920876709
C        -0.69969779617462       1.28489362983196       0.12657150750584
C         2.51386774807831      -0.39834571545413       0.07807874409590
C        -2.47284445513626      -0.48621399276854       0.12306165489891
H         0.04468430924918      -1.82761971101923       0.10716164783948
H         1.31167926521848       2.18785289478560       0.09105792157236
H        -1.36122905325964       2.14148210729197       0.12023538499884
H         2.57458503046423      -1.50755979515721       0.06050755638662
H         3.01195148426443       0.00200593946153      -0.82966351395503
H         3.04120953617483      -0.02301692465113       0.97970799972427
H        -3.00088671314388      -0.12655193687203       1.03072147782369
H        -2.99720902182021      -0.10698743655226      -0.77921033587105
H        -2.49494923116955      -1.59684213717065       0.10902483005708
S         1.11076764774294      -0.51513101225968      -3.81210230411576
O         1.53961554243044      -1.56176240105654      -2.77371484495789
O         1.79893799743327      -1.00151825478186      -5.09601380086811
O         1.93377153180362       0.72235796903420      -3.42421788986587
C        -0.67953518789145      -0.24724033862991      -3.95253206963508
F        -1.14670468370176       0.37085713070827      -2.81149259119434
F        -1.31789347856804      -1.46214640291744      -4.11028582358589
F        -0.94284239999291       0.55635309347977      -5.04453438347975
