25
C7H10F6NP optimized with DFTB in AMS.
N         0.15273781173589      -0.42561923984770      -0.33693755925624
C         1.58719965670273      -0.66644669532113      -0.56154909595383
C        -0.39463481942601       0.73652944062205      -0.72487615707559
C        -0.60444130771768      -1.40993930500340       0.16984480317489
C         2.30723340491131      -0.99332817778619       0.73934219477880
C        -1.74870375832398       0.95366607197296      -0.59848343832465
C        -1.96788411880369      -1.23798285409377       0.32190506586702
C        -2.55669879377198      -0.04822561714593      -0.07041916677198
H         1.66338626841013      -1.50319961518276      -1.26174997797901
H         2.00758095461889       0.22994621896546      -1.02238083366226
H         0.27155672605538       1.48100489313020      -1.14392000923092
H        -0.10689982815225      -2.32884366096344       0.44960939931188
H         2.12752195062158      -0.22181548779114       1.48772676581746
H         3.37510007935423      -1.04855313677278       0.53467137821560
H         1.98286684998010      -1.95667109466107       1.12796659489948
H        -2.16736306654585       1.89772084966039      -0.92273354191673
H        -2.55721460923911      -2.05266251944949       0.72229092703652
H        -3.62523560572998       0.10143539115304       0.02514886524676
P         0.56108608674723      -3.99496027266467      -1.96909805344080
F        -0.64178595072414      -4.80713818727743      -1.21302894551700
F         1.50384430072350      -5.31245416227200      -2.01375538263859
F        -0.07251758309076      -4.30953997048330      -3.43035097041447
F         1.75576238727604      -3.07096267198068      -2.65135339623605
F        -0.38612220625877      -2.58707715825072      -1.87646939708071
F         1.19477455594720      -3.59099935165648      -0.45273320544959
