36
C10H12F6N2O4S2 optimized with ADF in AMS. Optimization did not converge!
N         2.62666288746905       0.11501986241662      -0.08245395553554
C         2.88103509346086       1.20311058555136       0.90472581240406
C         2.21481323820700       0.95752293219064       2.25067155259155
C         2.87181489148237       1.81456461304564       3.33063828470633
C         1.44934554985693      -0.54400364959990      -0.10200225240212
C         3.63846132329984      -0.24609155365693      -0.90146229457805
C         1.23633366139298      -1.57975246703353      -0.98864248404139
C         3.46448796990171      -1.26603864620155      -1.81999279305002
C         2.25553668090587      -1.94711618206297      -1.86344462684367
H         3.97348954099513       1.23015070377281       1.02682771907812
H         2.54559288739538       2.14545804424245       0.43980393000771
H         2.33135335899252      -0.10737369456473       2.50227204086292
H         1.13537805813994       1.18326057865586       2.20613546552573
H         3.94249452899465       1.57437398961208       3.41120280807873
H         2.40679968000998       1.61803696256955       4.30720966275487
H         2.77135017779233       2.88954790257728       3.11439738028064
H         0.70453248364961      -0.22732041578304       0.62208193243341
H         4.56976922704813       0.30770474093075      -0.78926095330497
H         0.28434413379080      -2.10836255921160      -0.96797078051230
H         4.30124447243703      -1.53914319253808      -2.46113020606406
H         2.11211208499456      -2.77302885014878      -2.56159917345500
N         4.83177480575161      -1.32132521828369       1.28074174143636
S         6.37276425175020      -0.84662729148383       1.29182883530394
S         4.26120296522328      -2.69605853451718       1.91640798541345
C         7.21160582024255      -1.74242136944002      -0.15628050509144
C         4.12895453780701      -2.40430524540811       3.79343520750419
O         6.33923330386625       0.54106609695789       0.81434011536193
O         7.15483976583990      -1.21802214226293       2.45872211120418
O         5.11994660815581      -3.86438152690024       1.80866063892492
O         2.86057549936113      -2.75249883733441       1.49269793998323
F         8.51353672404665      -1.38239497791571      -0.18627741803001
F         6.64213704335392      -1.36472156324285      -1.34388247828779
F         7.12716202731699      -3.08007247526484      -0.06229682138935
F         5.30974321451156      -2.56634368728307       4.41206151559351
F         3.24488900076162      -3.30354988207870       4.29078229486211
F         3.66382584469483      -1.15688133710624       4.08046776157378
