39
C11H21BF4N2 optimized with ADF in AMS.
N        -0.66820909400847       1.74060671940851       0.52605588001208
N        -2.16548570450229       0.31523939526125      -0.13239614019185
C         1.76047292632169       1.88452204203142       1.10681730752504
C         2.21643895714457       0.65338513288437       0.32465585361813
C         0.54020538008825       2.58041958547340       0.51221089041998
C         3.56273484604661       0.11124920703473       0.80295591477732
C         4.01685251374388      -1.10827814977855       0.00182470250624
C        -0.95092854514248       0.81219365978505      -0.39623454948755
C        -1.73465365425136       1.84459466612100       1.39712693912300
C        -2.68051895761607       0.95305372374176       0.97918301707034
C        -2.90845674135158      -0.57622815502074      -1.03915562084476
C         5.36053484737787      -1.66504352696920       0.46444100923314
C        -3.86921161333925       0.22769532834620      -1.90155972297139
H         2.57201723317905       2.63488050301773       1.10767698350689
H         1.56938619459124       1.62261233756405       2.16390201178264
H         2.27732213610302       0.90636520749376      -0.74903041646350
H         1.46231809301941      -0.15009751478428       0.41762243177645
H         0.28581205318230       3.49256044789106       1.07144663096680
H         0.70855732729807       2.84464578940033      -0.54355263820004
H         3.50075112917180      -0.15192786301365       1.87656631936049
H         4.32687089517267       0.90758132283647       0.71989690088235
H         4.07529214702621      -0.83180607698514      -1.06639362584564
H         3.24391062106707      -1.89524402829921       0.07482055802441
H        -0.33805093757152       0.55275288484519      -1.25438835213190
H        -1.73397310820878       2.54393766245260       2.22377899156472
H        -3.66711159085132       0.72823442209151       1.36421196651356
H        -2.15772690621324      -1.07774511942464      -1.66532972963398
H        -3.41651105596357      -1.32781289283369      -0.41481263472439
H         5.31951749226107      -1.97408617772287       1.52124837686419
H         6.15638150689206      -0.90949839130618       0.36713194898119
H         5.65628064083201      -2.54213989739570      -0.13186665746869
H        -4.64298236176300       0.71726637311815      -1.29095527418161
H        -4.36250642002844      -0.44402550180726      -2.61903822468191
H        -3.30544652041567       0.99041263046841      -2.45772543260804
B        -0.47124539890615       1.81483388244863      -3.27790240286025
F        -0.37541830555282       2.30876663834575      -4.57228276620315
F        -1.41835770931679       2.55143643106780      -2.49366855276274
F         0.79730450385160       1.87472328662380      -2.58984571728669
F        -0.88465174016768       0.43163699488814      -3.27429557646088
