42
C10H18F6N2O4S2 optimized with ADF in AMS.
N         0.11073479097081       1.08188932709678       0.67476193440214
C        -0.79527199214141       2.21311621977419       0.19550931128848
C        -0.22231664925983      -0.18479279258875      -0.08108196844979
C        -2.27007869807513       1.86146311851884       0.26637848817140
C        -1.68965601835406      -0.56745061898212       0.03009313161305
C         1.54211865876094       1.51098618872909       0.36816225694019
C        -2.58836926291761       0.56233896735496      -0.47165164659379
C        -0.05021025285216       0.87600943399634       2.15222032792497
C         2.61992211494631       0.58576573628754       0.89376658708088
H        -0.48578680907597       2.40543294634632      -0.84496079581493
H        -0.54435877924661       3.08395755079065       0.82104379919962
H         0.43554611404692      -0.97470501800923       0.30617162995386
H         0.04329957061132       0.01157468084842      -1.13290678452758
H        -2.81802710776345       2.71012575873223      -0.17448586960821
H        -2.59528169758497       1.81945770688244       1.31756467136796
H        -1.93908838706970      -0.82889174098541       1.07228036708416
H        -1.83551689995569      -1.48466846273791      -0.56458528471604
H         1.59033943382000       1.59147269115846      -0.72917661615655
H         1.65728881051731       2.51950860573539       0.79487921530473
H        -3.64852970567545       0.29419446667003      -0.34136682562852
H        -2.42256154004041       0.69888175351728      -1.55656557336180
H        -1.11284671851513       0.82465935001951       2.40245704031126
H         0.45522490725335      -0.05448157278591       2.43485614608473
H         0.39221435040122       1.74031520236620       2.65804180470693
H         3.58673475385924       1.00645013707840       0.57928450397545
H         2.63611191479491       0.54968616371464       1.99094677430106
H         2.55652927615680      -0.43460420458620       0.48859283802109
N         0.43371890126706       4.10799869146063       2.59783009244007
S         1.91887561122593       4.71393111372155       2.79280111761506
S        -0.76282777373136       4.22159055409793       3.68344984184068
C         2.77968277044449       3.62884384871851       4.10138934038629
C        -1.33547755003121       6.02882686254265       3.71922749612067
O         2.63750856134062       4.35887582024298       1.56724325737823
O         1.99205714205245       6.05960505404846       3.33667067828192
O        -0.37692542246243       3.92665117299959       5.05712641828727
O        -1.89158368206685       3.51384422209172       3.07429435474752
F         4.12003793735070       3.70892083467154       3.91874437241317
F         2.41906046974214       2.31552125289444       3.95374685850220
F         2.49360019551414       4.00864229901506       5.35600923867498
F        -2.59560051109161       6.05671410206980       4.21963025183549
F        -1.35450496436388       6.54693638484363       2.46753488064765
F        -0.54739441310176       6.78717292183934       4.50043851755406
