43
C13H24F3NO2 optimized with ADF in AMS.
N         2.53662290650382       0.49945971478709      -0.02885901108265
C         3.04634644588874      -0.33602832454541       1.13584695478433
C         3.59949909648717       0.24553876859202      -1.08486995490432
C         1.18901247947764       0.02732763893102      -0.54692483105853
C         4.57398307979281      -0.19345408955270       1.09450063454389
C         4.91794909298539       0.32090294866572      -0.32783729934795
C         2.48688543921272       1.94073311772900       0.34515754860773
C         0.11204916269662      -0.12006178051080       0.51035641560204
C        -1.13000009645048      -0.75533480981682      -0.12047630168604
C        -2.20999437827558      -1.06523759277456       0.91133817835379
C        -3.43937131583660      -1.73015419157864       0.29708464203828
C        -4.51613856528889      -2.04237159539603       1.33221275930498
H         2.70057254570934      -1.37305312526374       0.94254553271758
H         2.58507212730210       0.03437863251591       2.06050217450039
H         3.47477151469226       0.97099236837091      -1.90076649790099
H         3.39990667424437      -0.78466455524624      -1.43307882590225
H         1.40031500981935      -0.94696940846864      -1.01411071633517
H         0.90060111477095       0.74810435199136      -1.33075008542569
H         5.02984529736603      -1.17440857389489       1.28837190713439
H         4.94576362892258       0.49952802698660       1.86403726326992
H         5.31487732382139       1.34745842855895      -0.29627141230194
H         5.67244817388799      -0.30321590962052      -0.82691589628329
H         1.72692056567313       2.07536097078999       1.12428378117801
H         3.46761417824852       2.25060508741119       0.72537121138045
H         2.22390731961121       2.52896209543429      -0.54392940588564
H         0.47230623615157      -0.80489616950528       1.29469270245977
H        -0.15733499446323       0.84778391374421       0.97166901354781
H        -0.82892317126039      -1.69690678843619      -0.61200631914526
H        -1.54110039311953      -0.09255851233684      -0.90555295055235
H        -2.51473423404942      -0.13608923659745       1.43112052390855
H        -1.78171036132768      -1.73570878160572       1.67968851893275
H        -3.85783215305251      -1.07385653023026      -0.48840972637347
H        -3.12681542362375      -2.66149915209646      -0.20849918320917
H        -4.86067676936045      -1.12249657499489       1.83275272556835
H        -5.39033935411758      -2.52457030638474       0.86957573968248
H        -4.12734911597651      -2.72018421652762       2.10924962160210
C         1.82128687482130      -3.27615496344216      -0.58404032005047
O         2.50356531860660      -2.67130510632146      -1.45360713143502
O         1.61395587962372      -2.99878030896059       0.62197367504834
C         1.02995872726001      -4.51480719414805      -1.11841112793484
F         1.62026434650686      -5.11585787120990      -2.18862518214392
F        -0.22361634347631      -4.10312182279867      -1.53522478961495
F         0.83169210779472      -5.47907340614300      -0.17617023839203
