36
C8H18F2N2O4S2 optimized with ForceField in AMS.
N         0.01259185258853       0.00434431277779       0.00819484106166
C         0.91815590640262      -0.85997208372379      -0.80993162970173
C         0.92717925969610       0.87193932232980       0.81199717037509
C         2.33313920953240      -0.33021138055630      -0.67547816560232
C         2.33865576858075       0.33603195038001       0.67040397635892
C        -0.81315885792814      -0.83905735524656       0.93230067181489
C        -0.83214339721450       0.84365967475821      -0.90257333506719
C        -1.82099677253787      -1.76244367084940       0.22465639099967
C        -1.82250398518676       1.77500377981890      -0.17963624817940
H         0.63292945228040      -0.90144218570518      -1.88613322755617
H         0.93342915694829      -1.91441415927609      -0.44974476139478
H         0.65058237530676       0.92330552179504       1.88997611380064
H         0.94371080657830       1.92277853134131       0.44185318649506
H         2.53262636709232       0.42207151515755      -1.47049794621889
H         3.09049711385793      -1.14270097003163      -0.72938812527233
H         2.53919657296379      -0.41685730032292       1.46458551569726
H         3.09943423176822       1.14558742296407       0.72002298545911
H        -0.14747887958101      -1.47609364197601       1.55908746597156
H        -1.37626456294972      -0.20340519721427       1.65063202666972
H        -0.17911776489917       1.47558911105400      -1.54759865646977
H        -1.41129209592237       0.20442799365319      -1.60451017265716
H        -2.25115746169913      -2.47069615652372       0.96346607039694
H        -2.66116492669837      -1.17824523574772      -0.20160497798796
H        -1.34149410316755      -2.35563776191499      -0.58001277035227
H        -2.29458085952722       2.45182281451568      -0.92259926297856
H        -2.63506006374758       1.19799588014988       0.30588917050488
H        -1.31589281054106       2.40283846718803       0.58071905406355
N        -4.49096217143331       0.06852626862286      -3.95966262500038
S        -3.75301730200358      -1.38222916466852      -4.12537515593866
S        -5.56324775385606       0.60557905261639      -5.07271938716253
F        -2.57980412918020      -1.27068394680839      -5.31472089274477
F        -6.99753760159438      -0.24324555999060      -4.90969285541462
O        -3.10972204975015      -1.77210977366658      -2.82625853613055
O        -4.75737544821343      -2.42643800446263      -4.52516533737873
O        -5.02016824892383       0.38459582487021      -6.45669976280311
O        -5.82170117974104       2.06969307549238      -4.85822491035707
