37
C9H20F3NO3S optimized with DFTB in AMS.
N         0.19414722368863       0.33795974330567       0.23657586410485
C        -0.39092420157090       0.28713211854529       1.62678312357408
C        -0.84604720534458       0.72295680740237      -0.78771356880362
C         0.72316601815720      -1.02697730952565      -0.10450512136146
C         1.29014830681173       1.37677883989221       0.21901302982344
C        -1.61586956385244      -0.59817309570999       1.78577515387165
C        -1.59335911399407       2.01742178927067      -0.51130874319787
C         1.46715222371217      -1.12629632463478      -1.42899581793072
C         2.51152591399502       1.04623531981130       1.06105779457354
H         0.40208171304179      -0.06541193802766       2.28812013217157
H        -0.64750121878240       1.31020969978860       1.90742938798982
H        -0.32310802550639       0.80576475909257      -1.74333444026984
H        -1.54794878177632      -0.11236665762938      -0.85429904671710
H         1.38129860270151      -1.32919108781640       0.71303749839103
H        -0.13324875571513      -1.70436788238367      -0.12370663430116
H         1.57994586537350       1.52088415781770      -0.82417211099845
H         0.84681293900681       2.30484756275647       0.58878722775716
H        -1.92252102541990      -0.52690715233089       2.82941209742541
H        -2.44696470791070      -0.25925763057146       1.17055173726641
H        -1.40914555344984      -1.64424042647351       1.56225653575054
H        -2.31112972395134       2.15306440351146      -1.32052483381716
H        -2.13789817986322       1.98783223690433       0.42941490414872
H        -0.92613915069865       2.87602754853808      -0.49447353005022
H         1.80400550730628      -2.15727378351098      -1.53716155837024
H         0.82409540730405      -0.88956651810975      -2.27454000279328
H         2.34106239274502      -0.47910033995248      -1.45664202584366
H         3.17976993002516       1.90577678028244       0.99825491812824
H         2.25285597488666       0.90370644794818       2.10753623343178
H         3.04739371493605       0.17008723804079       0.69841686763937
S        -0.69495427173817       4.06600843049706       2.41146930265025
O         0.11134234552403       4.05215558306553       1.19434985273149
O        -1.64938534680518       2.96482625592068       2.47809174891190
O        -1.19218776372888       5.35040604949224       2.81418716086159
C         0.55077412026105       3.57910727413527       3.70392639740426
F         1.62130864029402       4.36208202313686       3.69776498439128
F         0.97432415224742       2.32340121149004       3.42967847473084
F         0.04284053229001       3.56545893703081       4.92683445962559
