46
C12H26F6NP optimized with ADF in AMS.
N         0.75526980670081      -0.53898679476313       0.01502732737427
C         2.00075065880934      -0.24872123808530      -0.79347138343016
C         1.26462327150393      -1.53805535707100       1.04542329004352
C         0.26023358117680       0.71213443800429       0.73066152835797
C        -0.31897882533583      -1.14631309235829      -0.85712755222300
C         3.13457927146786      -0.17446317136886       0.22861261397825
C         2.65726493999991      -1.03957805092401       1.42541820035993
C        -0.31290620452380       1.79377718265518      -0.16664358228618
C        -1.58726641142679      -1.52512028247683      -0.11468038313071
C        -0.67960192464577       3.01457335327965       0.68709459942390
C        -2.58135273009047      -2.21765638358237      -1.04893966262805
C        -1.34714686803711       4.11774475416975      -0.12756424333346
C        -3.86689826905969      -2.59787907785323      -0.31747269001455
H         1.84787824444782       0.66047483888960      -1.38766022571189
H         2.12957841993869      -1.10599612123702      -1.47199460733442
H         1.30531289301990      -2.50599862026500       0.52197105407439
H         0.56184441465110      -1.57860842488503       1.88760976042678
H        -0.48182084316988       0.37107242833365       1.46198653117111
H         1.11191762165660       1.08772075262693       1.31380366962978
H        -0.52230022394573      -0.42029465190046      -1.65935680746257
H         0.14276140264956      -2.03696681460853      -1.31564823717286
H         4.06645263565830      -0.55072460456953      -0.21806400055657
H         3.31869639198063       0.86373627648726       0.54172746143042
H         2.60322272009279      -0.45349260865484       2.35260162109936
H         3.32300662617308      -1.89442498563339       1.60978041789192
H         0.40134638220447       2.10371315179004      -0.95122000259753
H        -1.22372886017860       1.43313735955860      -0.67514838061990
H        -1.35184841737052      -2.19200120047087       0.72964623811612
H        -2.06000051611852      -0.63363820254779       0.32721304900853
H         0.23458228675985       3.40413758605131       1.16892290724316
H        -1.34036857380306       2.69067389168947       1.50814712215758
H        -2.81866011180296      -1.55235036538514      -1.89974651399610
H        -2.11519338780213      -3.12450062518751      -1.47724747929583
H        -2.28415595292112       3.76065780483283      -0.58502364469765
H        -0.68956573963574       4.47709569114873      -0.93637652482440
H        -1.59628546488694       4.97827885997874       0.51072584861425
H        -4.36269304065908      -1.70477351378339       0.09407066925694
H        -3.65312914829781      -3.27384943104346       0.52520241842271
H        -4.57513177097335      -3.10243932047623      -0.99028846422114
P        -0.83859811436300      -0.12657452165866       4.33582427089729
F        -0.30496616912841      -1.47828574834677       5.10017367373400
F        -1.20492395439570      -1.07411271887718       2.97358365880585
F        -2.36050212540516      -0.35973801437297       4.88902914514467
F        -1.34513004001676       1.20793581361417       3.47087896557958
F        -0.45244774916706       0.81710909798916       5.61161120905138
F         0.70220212726953       0.09825085288741       3.69644653024331
