48
C12H22F6N2O4S2 optimized with ADF in AMS.
N        -0.95377800448356      -1.60115996345775       0.44208908901735
C        -2.11545602672727      -2.04393479443015      -0.43161794697471
C        -1.65509653823107      -0.96030237454817       1.63705358102774
C        -0.12986073292350      -0.56512022306818      -0.29329063025443
C        -3.11978685825075      -0.90929117049057      -0.34468131020409
C        -2.98983896319238      -0.40777392448997       1.11106133430490
C        -0.11961092734887      -2.78959153996696       0.88152261386024
C         1.12691841955933      -0.11356867244785       0.43243152428064
C         0.64260440601876      -3.45146298134999      -0.24770885888356
C         1.82017997593155       1.01637056316611      -0.33268948461461
C         3.09481873234141       1.47898413496019       0.36769913918544
H        -2.52696671334297      -2.94238467118702       0.04324482452929
H        -1.75118042177399      -2.27742813695929      -1.43938992764933
H        -1.80948781008831      -1.75831668373443       2.37661085483262
H        -0.98508662328176      -0.20284490303816       2.05927109249163
H         0.12114786552600      -0.99579422188938      -1.27411598920376
H        -0.79965275060564       0.29076341096636      -0.46296479871211
H        -2.89821376664446      -0.11544446772197      -1.07483421887161
H        -4.12870546930980      -1.28893138933909      -0.55921195195740
H        -3.79970519875206      -0.82638861080923       1.72438670287548
H        -3.03642505723205       0.68901931507555       1.16927020423944
H         0.54983230125028      -2.42418209146743       1.67317762816616
H        -0.82092698157330      -3.49659841415449       1.34710572994478
H         0.88503317573044       0.24027345631005       1.44865465793728
H         1.83122567100953      -0.95323815352898       0.54586970477020
H         1.12448476190834      -4.35350248028097       0.15756437287337
H         1.42965048112071      -2.81146086933336      -0.67160007718060
H        -0.02537706978850      -3.78562796594398      -1.05259021326134
H         2.05925326586494       0.67379446981831      -1.35562703228701
H         1.12371499558973       1.86720272125614      -0.44116029938024
H         3.81369909671423       0.65032951293601       0.46637677718167
H         2.87475094514669       1.85528339734710       1.37919246832375
H         3.58652898294641       2.28708245589626      -0.19355497302818
N        -2.52624695022594      -5.40817768780694       2.11699785043000
S        -3.31792549350715      -6.49903082610968       1.20958212556212
S        -3.23244947449277      -4.13396857515895       2.78088371944421
C        -3.06863495800841      -5.86610561753721      -0.55575086831927
C        -4.40048771682437      -4.72237571800772       4.16778795534970
O        -2.53634780463499      -7.72348689368935       1.21361326301787
O        -4.76365766859824      -6.51560272238841       1.38211277915995
O        -4.09093309373057      -3.33153852259301       1.89846165724962
O        -2.17519383554815      -3.42868024034469       3.51808905939187
F        -3.46553778684969      -6.80743046594808      -1.43811298326066
F        -1.75322677074319      -5.58575576649173      -0.79699160579436
F        -3.77968696407049      -4.73229986562302      -0.80125753645467
F        -4.49232415692553      -3.72305792930639       5.08332502784493
F        -3.90501124642988      -5.82118806434359       4.77381399247486
F        -5.63298560201874      -4.98605724554591       3.70179272962484
