26
C8H11F3N2O2 optimized with ADF in AMS.
N        -0.66635069981041       0.39953494487411      -0.21498196591626
N         1.49268324171994       0.31734161386125      -0.00144545723316
C        -2.04795817306900       0.01636580823728      -0.56308899965694
C         0.42371778971948      -0.31377805094134      -0.51400709666868
C        -0.30511517248213       1.51782471803342       0.51099718018871
C         1.05558713552887       1.46209829805029       0.64101725902838
C        -2.78286584869204      -0.50579466473284       0.66120121433854
C         2.87440379344423      -0.12796727525258      -0.11231016956723
H        -2.51533867711295       0.92865919113013      -0.97261461605515
H        -1.97139373941182      -0.73943906765441      -1.35940902618497
H         0.44258058354893      -1.23923120117287      -1.07435837944738
H        -1.07850786273183       2.21873720687413       0.89032510464408
H         1.74839537741419       2.13946963672749       1.12578125140693
H        -2.28341180156657      -1.39728137049861       1.07269065081410
H        -3.81119242923288      -0.76988169750260       0.37618256625493
H        -2.84075170003373       0.27654484070776       1.43281009796744
H         2.89281097158734      -1.12718752505350      -0.56198422637916
H         3.44142351939015       0.56843135247856      -0.74355038727143
H         3.32015760863698      -0.17765389457498       0.88936485744142
C        -3.28635347385185       2.79684588961576       0.38321780772441
O        -2.75264801653153       2.97282966019404      -0.73777761137241
O        -2.76259034685962       2.71523601212331       1.52538420215321
C        -4.83479947980935       2.56586621162633       0.31278504551090
F        -5.13370040443375       1.57381728235491      -0.60237869740615
F        -5.49504328389022       3.69032475937745      -0.09419483042123
F        -5.39468485417042       2.17161736841749       1.49266810620709
