50
C12H28F2N2O4S2 optimized with DFTB in AMS.
N         0.66891252763573      -0.30163175526913       0.55478161975232
C         0.09466729812376       0.42383478007375       1.74538297275738
C        -0.26969133037690      -1.37244001936290       0.06191917942267
C         1.96210110476743      -0.96470066387689       0.96877597800545
C         0.88260823996600       0.68891714004334      -0.55466401665861
C        -0.34769154064586      -0.46326320952291       2.90807093324020
C        -1.67702535132083      -0.91323580202861      -0.31084878753017
C         2.80980156983100      -1.53003623973533      -0.16965086512181
C         1.89147412911165       1.79801584062397      -0.25806138352820
C        -0.89813346236924       0.41563249481378       4.02998476557654
C        -2.51124335117228      -2.14952102472476      -0.65338288702130
C         4.02561176183954      -2.23576938281187       0.43151713677766
C         2.07213073787716       2.66003167951653      -1.50787731648495
H        -0.74989502889570       1.01576738037681       1.38322334653376
H         0.86693368210179       1.11306522276272       2.09545067246716
H        -0.33210560578664      -2.12417599908908       0.85130716760671
H         0.20143817676698      -1.83512168985176      -0.80709768415308
H         1.69555320304363      -1.77777955572337       1.64534323864557
H         2.53807274576088      -0.22482929228102       1.53018899467693
H        -0.08914516796486       1.13872110301084      -0.77062747806094
H         1.19739420487313       0.12161162321801      -1.43341129673657
H        -1.12450961841246      -1.16309205501154       2.59612054968056
H         0.49517255139018      -1.04102617838919       3.28916207525672
H        -2.14876298572868      -0.38355892410176       0.52061184765280
H        -1.65284624181788      -0.24127782236291      -1.17381285837460
H         2.23612848722804      -2.25400749102385      -0.75131709326257
H         3.14802334991557      -0.73553631122496      -0.84055579293697
H         1.53626224729256       2.42769003276119       0.56158395617137
H         2.85809391909048       1.37925023367163       0.02923522239065
H        -1.21160978298342      -0.21863012401782       4.85792308952078
H        -0.13613340771455       1.10864250822242       4.38900107364260
H        -1.75911741583977       0.98953621873206       3.68455585384021
H        -3.51727216476880      -1.84572949777798      -0.93999454919419
H        -2.05793789148289      -2.69892050479994      -1.47788848418650
H        -2.57326162456773      -2.81336540125391       0.20877104646401
H         4.64773526663580      -2.63190540729562      -0.36994038690178
H         4.61930268746105      -1.54174132878427       1.02802417312020
H         3.70485156734961      -3.06286537486098       1.06357686959705
H         2.77759351453193       3.46332672464938      -1.29924040816140
H         2.45929920634397       2.06153211095652      -2.33284414803778
H         1.12187872785718       3.10047657366895      -1.81112007259313
N        -0.71680655858192      -4.15777705520091       1.44981179849226
S        -0.27726018540998      -4.20169814187348       2.97541387850370
S         0.32745330468874      -4.68182370153936       0.36835584388996
F         1.03727317952549      -3.19589782853591       3.01874740748682
F         0.32304402072937      -6.27887374431913       0.51547949323833
O        -1.25809261640768      -3.47509884906461       3.71562056694474
O         0.22200053872593      -5.43411153178810       3.47801723809582
O         1.69196899059417      -4.29482018377517       0.57936412328330
O        -0.24246453921063      -4.42220482312289      -0.91838546808966
