37
C11H23NO2 optimized with ADF in AMS.
C         1.99221952903325       1.05503054325329       1.75392978683445
C         0.91082593892560       1.64182451134064       0.85292899114728
H         1.31323633416570      -0.57570383392813      -0.65567433096587
H         0.40369186009822      -1.63030818113912       0.47179204190282
H         3.02140276869811      -0.75060174630591       0.97541436784981
H         1.89409559233363      -1.08007414435893       2.29784279461312
H         1.73112998713279       1.20434216116373       2.81218425115582
H         2.95267882208432       1.56096570065549       1.58235217166514
H         0.29059222375544       2.44735655493389       1.30266076274231
H         1.31114839219845       1.93949229681211      -0.12811924056916
H        -1.63803175583076      -0.50885423931583       1.55194626351824
C        -0.88720454767712       0.25223552564819       1.79056652165349
H        -0.25554237237088      -0.09392225240851       2.61728092377978
H        -1.33199046692784       1.23883508300766       2.03656049350616
C        -0.87809170273279       0.76945607581302      -0.62492299772736
H        -1.45504758422169       1.68767172281565      -0.34168883909485
H        -0.16583873094350       1.01792924108096      -1.42883906785023
H        -1.64360713141404      -1.26878729425346      -0.38612395341993
H        -2.28341114228444      -2.30632839538008      -3.93259587372481
C        -1.54408524173161      -0.84749840425272      -2.48546916155613
H        -1.68312739029172       0.01326831942092      -3.16329609169612
H        -0.49065572939124      -1.16551037761541      -2.59532516059490
C        -2.47131104504769      -1.98689209468938      -2.89656043258025
H        -3.52645769475086      -1.67951620071356      -2.82248479266899
N        -0.01933325836686       0.47024462840833       0.58149560451699
C         0.93754764089892      -0.67649422901082       0.37355613694441
C         2.05191512701171      -0.45856005218495       1.40399513718643
H        -2.33270734777399      -2.86277644315188      -2.24157127926986
C        -1.78244278569076      -0.39392468179019      -1.04411001860872
H        -2.83562343919252      -0.08870801984759      -0.92040500672863
C        -2.65541199934939       5.03759837259161       1.73539364683175
C        -2.03609344091223       3.67828437267871       1.39308635289381
O        -2.37734232692732       3.15628062430006       0.29111883553756
O        -1.21038790847296       3.19969432583618       2.24109848809254
H        -3.70960378414687       5.07102739259261       1.42540167649940
H        -2.56094816205420       5.25828083619694       2.80717854525993
H        -2.12201032543288       5.81886195519648       1.17032416882459
