26
C8H15ClN2 optimized with ADF in AMS.
H         0.44038448051232      -0.57872330380808      -4.93810850861143
H        -1.18418616682953      -0.83528971393856      -4.23700197155528
H         0.03798068368878      -2.13630494405610      -4.13660791636391
C        -0.11653127749815      -1.04980797147005      -4.11794763117974
H         2.41297176894983       0.28423447000548      -0.34437325367789
H         2.42112757279925      -1.07750540063979      -2.90606562249687
H        -1.47213493705103       0.36474129898885      -2.05531011344245
N         0.34111504600010      -0.51326087737691      -2.84509344659348
C        -0.41671170165490       0.14949105553261      -1.95329576654558
N         0.36134503633068       0.49731920151537      -0.92444992538321
C         1.65074281846376       0.04774934545365      -1.13781746239227
C         1.63214529943597      -0.58637012339816      -2.34965713269085
C        -0.07349340110241       1.17300848760621       0.30805465280208
H         0.77012273108760       1.82681368692230       0.60487424847933
H        -0.97589374044380       1.75561727066441       0.06610816048042
C        -0.30136514421972       0.16079304658107       1.42226336334851
H         0.61914952395926      -0.44308252082073       1.50301381838696
H        -1.15061255586520      -0.50437021993726       1.17651821744892
C        -0.51712093892647       0.86909810453276       2.75568476486721
H         0.39178372276430       1.46410208004997       2.95558696555201
H        -1.37055705153829       1.56838127927697       2.68269404952563
C        -0.74697503797847      -0.12168769838837       3.89242331465417
H         0.12535679325043      -0.78538564907102       3.99939310061861
H        -1.63329739120460      -0.74965007713631       3.70382020018516
H        -0.89577909666847       0.39693376057227       4.85142643914105
Cl        2.95708692203876       1.17591016293943       1.44027111884292
