68
C18H36F6N2O4S2 optimized with ForceField in AMS.
N        -0.00116965876353      -0.00132651024431       0.00007269308362
C         0.84503164419914      -1.02870980793046       0.70554418144305
C        -0.87137283681918       0.68304868249411       1.02157955200102
C        -0.82634478525264      -0.69896184560300      -1.04856774244586
C         0.84750013611281       1.04010573677833      -0.67965178841758
C         1.89463598747396      -0.47813421775029       1.70591046227512
C        -1.93740331261605       1.66116430288641       0.46374993790790
C        -1.89282966062042      -1.69452010014387      -0.52532606110633
C         1.93649084625350       0.50944460382322      -1.64693708929923
C         2.66223476746217      -1.63223591029565       2.36457683568523
C        -2.73743517208198       2.29078126293465       1.61211210565780
C        -2.64184381371156      -2.33845053543233      -1.69959047839909
C         2.71603739894495       1.67805222313010      -2.26486137009056
C         3.70064063537241      -1.11644701584060       3.35683925799495
C        -3.78811178025078       3.26620491464196       1.08975950665073
C        -3.69352125051045      -3.33014526874790      -1.21189170459298
C         3.78281270046253       1.18292136683943      -3.23685012846293
H         1.37119662396303      -1.67454076565818      -0.03224453588974
H         0.19833824413372      -1.71691768878520       1.29085715432504
H        -0.24419758290445       1.28163994718036       1.71643722003258
H        -1.38659411970333      -0.06771830257333       1.66132274637400
H        -0.16681994054533      -1.28581001162256      -1.72311758256896
H        -1.33331956666305       0.04362829098632      -1.70435601949476
H         1.33760881542559       1.69210201258596       0.07254548137203
H         0.20820525279762       1.71921053291264      -1.28316764339855
H         1.40166297291488       0.10266512371128       2.51139842850826
H         2.62724331357554       0.17608494850777       1.19231942824815
H        -2.64729967354622       1.13644920800053      -0.20701124059622
H        -1.45450678777496       2.48320724119167      -0.10216841458197
H        -2.63383065848701      -1.18128669079817       0.12024685434012
H        -1.41492186981287      -2.50728501073420       0.05789971798061
H         1.47470356535104      -0.06527368888476      -2.47495349176324
H         2.65658067776567      -0.14620580419756      -1.11716385534510
H         3.17776198737224      -2.23352431142825       1.58434593523637
H         1.95094489546401      -2.29497111063298       2.90493274573789
H        -2.04877852181798       2.83933106981206       2.29168636202563
H        -3.24602632228009       1.49337163822099       2.19653274538705
H        -1.92096119267757      -2.87641620272377      -2.35375935784352
H        -3.14266403078036      -1.55024953566854      -2.30296046091294
H         3.20713692918172       2.26887524207613      -1.46096596095710
H         2.01663299537101       2.34590552697252      -2.81418933700195
H         3.20817767111890      -0.53271196762777       4.16354658794816
H         4.44393098326734      -0.47402287850948       2.83892773231797
H         4.23246440415787      -1.97650064617599       3.81583276995948
H        -4.50928956444868       2.73942772184964       0.42949769870409
H        -3.30315926770179       4.08922593630118       0.52276621057905
H        -4.34402289199600       3.70487216121891       1.94507278788789
H        -4.44532155274814      -2.81410902835007      -0.57786327424091
H        -3.21462934398026      -4.14399823978970      -0.62681623699583
H        -4.21219118721959      -3.77906361927535      -2.08502441842669
H         3.31432671054387       0.60916199658056      -4.06478609532412
H         4.51509898024403       0.53590845756146      -2.70903945228265
H         4.32223284602350       2.05186623076795      -3.66917286154396
N         5.25468166925998       2.37225067854755       3.54703363744074
S         4.18332197516608       3.59010599392506       3.78531634693827
S         6.83375708615735       2.63351445849365       3.19109031449571
C         3.38215531891667       3.97226397214427       2.24254865994092
C         7.79875633516519       2.47417453976281       4.67919359337403
O         3.14243548698875       3.14477942851440       4.77248072902211
O         4.87913262326842       4.81682043555397       4.30670876403325
O         7.03177685978080       4.00584167301930       2.60911075557213
O         7.29420081706717       1.59892675703156       2.20423728795219
F         2.45556520157905       4.97904184258987       2.43600577401144
F         2.74007685558760       2.84530679638044       1.77346562556742
F         4.32021860900863       4.38352241290101       1.31538440868556
F         9.13060761093170       2.71000624599329       4.39551942933150
F         7.65797356956823       1.19620023156759       5.18581470381716
F         7.36135173681563       3.38914075683339       5.61757512503654
