59
C17H34F3NO3S optimized with ADF in AMS.
N         0.35896978633879       1.87906933989810      -0.04587826684867
C        -0.11000604434133       2.85259861314435      -1.11216234619389
C         1.01379185980948       2.81225958648916       0.96560836571283
C        -0.79828813036924       1.16869859379859       0.62054379516317
C         1.36344240779950       0.91969823378186      -0.64436110442413
C        -0.67690721689391       4.03463114888539      -0.33823951587147
C         0.16010730408568       4.08533527659762       0.96476243612009
C        -1.53676318309939       0.15602866242751      -0.23860066924146
C         2.00922560583910      -0.01660490233719       0.35709242031188
C        -2.75446993362876      -0.39672480094999       0.50877105728820
C         3.13537238363586      -0.79449552812753      -0.32599291477139
C        -3.50221712789576      -1.46050713415856      -0.29404860193257
C         3.86599974339308      -1.72851411015894       0.63399978618810
C        -4.73312319540240      -2.00798377661866       0.42693340112993
C         5.03158076717021      -2.46200535402512      -0.02581655263452
C        -5.47169486418286      -3.06511832914900      -0.39145367181237
C         5.76175062911452      -3.39313013540870       0.93830903871279
H         0.80746935736925       3.15115622501281      -1.64467412163371
H        -0.80991396167652       2.34745220488583      -1.78927074988002
H         1.06188827530459       2.30020914549599       1.93465333821424
H         2.03445698129519       2.99067035630773       0.59760695066442
H        -0.38049792869173       0.67717177355659       1.51166177691365
H        -1.48369530920185       1.95644056774473       0.96705906967744
H         0.83945639243561       0.37233166548415      -1.44297956312066
H         2.13447569403383       1.56153372418089      -1.09394191505679
H        -0.56957317246899       4.95211994406128      -0.93372369310442
H        -1.74827889569163       3.90407362635604      -0.11972944672902
H        -0.48962284978366       4.14294321161418       1.85069666421917
H         0.82881833449026       4.95593720354312       0.97781308315322
H        -1.87524554623900       0.61295086402797      -1.18395384301948
H        -0.86787202392609      -0.67980527763067      -0.50180376801053
H         2.45276360938291       0.57375351471189       1.17606080152054
H         1.27698544423961      -0.71976211247073       0.79319082279258
H        -2.43100225176853      -0.82786261091457       1.47422907029020
H        -3.44502173512871       0.43152754930761       0.75254310221864
H         3.85104862628740      -0.06408775690174      -0.74152527311357
H         2.72812480833831      -1.37767253037290      -1.17325007880338
H        -3.81038334707335      -1.03498469275375      -1.26744617387972
H        -2.81349618687688      -2.29474369152923      -0.52456412516699
H         4.24809648933021      -1.13746936014952       1.48721155209785
H         3.15584694974292      -2.46683105441032       1.05412754900730
H        -5.41876628336949      -1.17262705559697       0.65999231940708
H        -4.42507214322025      -2.43664130117436       1.39827561682717
H         4.65657460523027      -3.03874770665359      -0.89136857899393
H         5.73733219853024      -1.71553380520829      -0.43257222068956
H        -5.81160701552777      -2.65067659846502      -1.35450783690030
H        -6.35589693578595      -3.44367053349428       0.14245836008286
H        -4.81645873632136      -3.92381626406895      -0.60999075249897
H         5.08084834893821      -4.16545906267323       1.33251103486406
H         6.60458215636764      -3.90401608284582       0.44826512301429
H         6.16215029345601      -2.83020147842999       1.79711216983653
S         4.09670340264800       3.61330217713417      -1.10710456366810
O         4.03826876775372       2.52626866055676      -0.09770524998962
O         2.77095628104774       3.91594700437292      -1.70324069306528
O         5.23236171832721       3.58584371080745      -2.02425621942578
C         4.41215558169718       5.12154997093849      -0.03434239004273
F         5.55195829565099       4.98698395510680       0.68836476439020
F         3.38265148904882       5.30901374494939       0.85960299450743
F         4.51332689033301       6.25232127149823      -0.77687188670281
