38
C12H23ClN2 optimized with DFTB in AMS.
N         0.19007767668576       2.27991462689881      -0.08859631170227
N        -1.81285029648640       1.49686597151802       0.05299398018581
C         1.58225061755808       2.44692239008105      -0.49222492730774
C         2.45605479899898       1.36289408882282       0.15233425267900
C        -2.98907358358633       0.66381370261591      -0.17151119167768
C         2.29467777522309       0.00532958878696      -0.53447745197870
C        -2.81957664668958      -0.69768398054160       0.51572105605067
C        -0.69692319109343       1.47642425170320      -0.67490324340941
C        -0.35057378779921       2.77536251243078       1.06396931282935
C        -1.61339660256291       2.28191307050620       1.15303999968904
C         3.04539840345652      -1.08650567342449       0.23284204966312
C        -1.89342849901747      -1.63206860864811      -0.26573679256445
C         2.85114429557618      -2.45197399967055      -0.42277829882986
C        -1.63296624045039      -2.91780218552094       0.51515023618092
H         1.89948627987010       3.44030029873398      -0.16462629450465
H         1.62929826297124       2.39974260467249      -1.58433790165212
H         3.49715023480254       1.69321887185719       0.09182436845068
H         2.17978151967135       1.27036827958712       1.20571320591972
H        -3.84860442235407       1.19731926528122       0.24255733387537
H        -3.12695054019098       0.55033758163769      -1.25107141056611
H         2.65737999613114       0.06588061548996      -1.56769732498305
H         1.23306420034031      -0.25680450021767      -0.56152879634464
H        -3.81178047171312      -1.14879404222913       0.61000182051624
H        -2.41216886146253      -0.53813773139448       1.51723534830304
H        -0.56068246835380       0.95859100022975      -1.60727156556566
H         0.20312131508805       3.41615209317411       1.72673218278124
H        -2.36846262266444       2.41119232816227       1.90780989112201
H         2.66418730566029      -1.11989337256700       1.25726082935809
H         4.11303909059116      -0.84371717258829       0.27084678838258
H        -2.33810863226566      -1.86245376155994      -1.24135360217005
H        -0.93743508508206      -1.12922085067305      -0.43746879526328
H         3.22596233288286      -2.44666414758939      -1.44822428880899
H         1.79299047257461      -2.71617400931510      -0.44088973651786
H         3.38902307126060      -3.21503126099230       0.14017019038918
H        -1.12853019879099      -2.68290947605580       1.45199696340238
H        -0.99518405761405      -3.58198426419530      -0.06856586636857
H        -2.56867839419472      -3.43418564868293       0.73538345511656
Cl        0.10617208472929      -0.11881505182349       1.99404948192008
