37
C11H23NO2 optimized with ADF in AMS.
N        -0.26851405464492       0.32565196369459      -0.21033684779593
C        -1.17507677465699      -0.69434642318402      -0.85610322897442
C        -1.12217382397066       0.88638292722176       0.91431227787338
C        -1.90999331591368      -1.36669231043786       0.30251308537743
C        -1.88561080213908      -0.32415859798683       1.45373000808240
C         0.95422460980745      -0.32766337395249       0.41577135670729
C         0.10610180451128       1.39880025378338      -1.20663534238780
C         1.95599809891615      -0.92547905014995      -0.55416499886350
C         0.96753530023533       2.49992430778288      -0.62978288859783
C         3.15646654169186      -1.42678224773177       0.25702869956934
H        -0.57811380172312      -1.36899711106388      -1.48279421679883
H        -1.87040753898517      -0.13047538308021      -1.49610563882951
H        -1.80341524753237       1.61138572049340       0.44229385551264
H        -0.44086371016931       1.38908980491413       1.64183295772365
H        -1.40791605765208      -2.29801377484484       0.60097869524073
H        -2.93222936221562      -1.63168221922743      -0.00395437289677
H        -2.89779275375425      -0.02498476051584       1.76044282903982
H        -1.38482128843817      -0.73172868536715       2.34365162826490
H         0.56805516879156      -1.09575392033403       1.10215414872115
H         1.46885561643913       0.45767863602303       1.01497860656091
H         0.60108177677118       0.88352292417100      -2.04370026714227
H        -0.85528506804381       1.79179831874015      -1.57519760640694
H         1.52933037803478      -1.74839409107342      -1.15547628257652
H         2.31234299105323      -0.15081403960932      -1.25302322132880
H         0.47567621628655       2.99577722031959       0.21961138106655
H         1.93039812883994       2.13045437150050      -0.24463460195967
H         1.14925662633369       3.24357767779473      -1.42068404080049
H         3.56916727546189      -0.59548652413888       0.84938524593746
H         2.85750003912853      -2.22761185338846       0.95189345803859
H         3.93861256050661      -1.82526648470799      -0.40535335582558
C         2.94569920911613       2.75519341922812       3.78245187140725
C         2.17192347240296       2.09796452421615       2.63250103947798
O         2.85685166782973       1.54166958462262       1.71783459025195
O         0.90387645248867       2.16098805356111       2.69789291782830
H         2.71894824879749       2.22688022111245       4.72155414331768
H         4.02879632735694       2.72746583947559       3.60266905324278
H         2.61358009953814       3.79584057133919       3.91287721394267
