28
C10H15NO2 optimized with ADF in AMS.
N        -0.52632597043709       0.14674732505701      -0.81396684709437
C         0.92651641501783       0.26109751518039      -0.95477325720843
C         1.63742418883396       0.16439558010054       0.39347356543360
C         3.15028911698252       0.29633313061531       0.25674453925184
C        -1.28821755117329       1.33267062694196      -0.65045397455828
C        -1.12888559337985      -1.07648246773791      -0.87215335500786
C        -2.56953555360344       1.10045784007620       0.03424680571644
C        -2.42888489311881      -1.25661171684624      -0.50226191224605
C        -3.13154665208706      -0.13604261858370       0.03377708985396
H         1.26765350205172      -0.54099952105795      -1.63150907180149
H         1.14497483896797       1.22615981532963      -1.43791829758451
H         1.37312575506869      -0.79739605877671       0.86795341877864
H         1.24836590546468       0.95978636208772       1.05339535446884
H         3.56400715635380      -0.49802211311392      -0.38534810718158
H         3.64127417910607       0.22405414739279       1.23883299422820
H         3.42186353100327       1.26714560332527      -0.18689151899144
H        -0.67111542709815       2.13355537484629      -0.22919625950580
H        -0.48804106749095      -1.89850738075477      -1.19322799700196
H        -3.06260638142381       1.95716818468601       0.49422004250144
H        -2.88002095498559      -2.24522908213725      -0.55229608468691
H        -4.11335856962516      -0.28813541823542       0.48694654299041
C        -1.30606795056534       3.35762477666536      -3.89269342154421
C        -0.83401249921541       2.85752779150132      -2.55150524958428
O        -1.65060052120070       1.89490336004853      -2.08074296335808
O         0.17232025811366       3.27180998213397      -1.98818458397132
H        -1.26929611659611       2.53156017970464      -4.61847955534116
H        -2.35146085658096       3.69155326721655      -3.83072684300082
H        -0.66178626558246       4.17769876263438      -4.22946033145483
