52
C14H30F6NP optimized with DFTB in AMS.
N         0.99122643392320       1.15726088072359      -0.28042354329704
C         2.15925543544496       1.79991538050066       0.43480776826287
C         0.25397955530079       2.29255734942889      -0.92709503622133
C         1.50007947449990       0.22509981844991      -1.35182322750981
C         0.11677853662131       0.45185671720115       0.71288998899076
C         2.29420233056084       3.22261889526538      -0.10703976792776
C         1.33378137427433       3.29816515473234      -1.29327697618115
C         2.10887365487816      -1.06944770501447      -0.80974648685143
C        -1.11761795152710      -0.20140881760815       0.09886635742162
C         3.19550748080577      -1.59926412901344      -1.75134958321872
C        -1.94109393098830      -0.86567754542302       1.20923795212623
C         3.86758257679566      -2.83236666744209      -1.13801265894423
C        -3.18090030395520      -1.55914396606885       0.63665351606740
C         4.98094162151263      -3.36220635289481      -2.03808554988963
C        -4.00147447195697      -2.22354592442476       1.74039617474512
H         3.05180092836794       1.20631062977486       0.25010222150445
H         1.96441156208575       1.79327976300082       1.50616678279556
H        -0.42735036966430       2.71615818113149      -0.18513569916726
H        -0.31817227517618       1.92897219320171      -1.78018833372217
H         2.24670923820166       0.79066799609041      -1.91457514844048
H         0.66436012821339       0.00661689771159      -2.02133147738360
H        -0.18510875858790       1.20021350587738       1.45020467548081
H         0.73500040736481      -0.29195905229993       1.21714022746072
H         3.32196230394499       3.43208009046062      -0.40514437915378
H         2.00441393949048       3.94504630532878       0.65944093821681
H         0.91115588870334       4.29538554557968      -1.42088274521174
H         1.83185914446129       3.00996455143918      -2.22217640886235
H         1.32711395958386      -1.82408406593731      -0.68742546064091
H         2.56268361865504      -0.89623323512202       0.16411810770746
H        -0.82649094742376      -0.95999337118144      -0.63212267077053
H        -1.73128397110985       0.54542795883570      -0.41400715523956
H         3.94700754449831      -0.81790730718670      -1.90702611835104
H         2.75994836393343      -1.84951269836754      -2.72535179487273
H        -2.24699444672922      -0.10778781606732       1.93798082622527
H        -1.31800870436032      -1.59926707280048       1.73044407356843
H         3.11715459419791      -3.61468569421406      -0.98183312202133
H         4.28334236054236      -2.56361086166264      -0.16231329936409
H        -2.86985735283737      -2.31491433755040      -0.09237831189756
H        -3.80035931605364      -0.82325793701429       0.11250446519070
H         5.44355428188747      -4.23630913796638      -1.58002750120805
H         4.58554045154064      -3.64859301512847      -3.01424932510629
H         5.74831073005055      -2.60065495135268      -2.18384413252386
H        -4.87664455302088      -2.71122730787087       1.31122108518074
H        -3.40483286168326      -2.97374118488341       2.26044910306509
H        -4.33706049859186      -1.48194917502814       2.46635181996812
P         4.17191610577210      -0.26828983958124       2.60034038206818
F         4.46108120932970      -0.14189935399380       0.94898372898365
F         4.31726661553791      -1.89255246439072       2.47764171265774
F         5.75704452285280      -0.08826171341003       2.89877395196166
F         3.81842381163134      -0.37069243944384       4.18507630421013
F         3.94572435794470       1.37796492380959       2.63645337143747
F         2.51694153405682      -0.42020546470043       2.23988920518142
