22
C8H12ClN optimized with ADF in AMS.
N        -0.31400174682352       0.02881487777732      -0.38010869493785
C         1.12110742102480       0.25695290557213      -0.66749193525353
C         1.91866421155794       0.36261055384101       0.62782424141530
C         3.41342769900575       0.38669879019095       0.32517075267233
C        -1.18647791474571       1.06421464424755      -0.36066389220254
C        -0.70399342391981      -1.23953423564789      -0.09546628801912
C        -2.51262529867481       0.85781616518225      -0.04158086397660
C        -2.03670446862209      -1.48333191154490       0.20620502706730
C        -2.95052873134306      -0.43767542621948       0.25010017470127
H         1.46861400834878      -0.64417451764282      -1.21919839250865
H         1.19256017467952       1.16618457700187      -1.28381502091243
H         1.68964034088797      -0.53308971205655       1.23094465872758
H         1.60264372759272       1.25841152130628       1.19391771831659
H         3.69761542056019      -0.55564419046916      -0.16944810706343
H         3.99280894470293       0.47904999490948       1.25503836279839
H         3.68246694232384       1.23213717614408      -0.32909422650388
H        -0.77574606955212       2.04360695662390      -0.60166023927656
H         0.11244769813094      -2.01444025453304      -0.17900604413290
H        -3.19547072775611       1.70717919450610      -0.02265812236992
H        -2.33755411948104      -2.51191615780418       0.41116884715345
H        -3.99493425869589      -0.61970665550483       0.51055178429330
Cl        1.83785132819879      -2.91779684008007      -0.71933473978813
