61
C17H36F3NO3S optimized with ForceField in AMS.
N        -0.00002560549356      -0.00149460096534       0.00002953661585
C         0.84417523044166      -1.03077457651514       0.70576175982636
C        -0.87338951868113       0.68136216231202       1.02049875012218
C        -0.82309895671257      -0.69921477262820      -1.05149862500516
C         0.85200958323316       1.04222622669477      -0.67437093531017
C         1.89203734681858      -0.48216607967924       1.70843250095467
C        -1.94111149210496       1.65722216067024       0.46068053653952
C        -1.89131975878122      -1.69557839727117      -0.53042407853848
C         1.94017069216789       0.51173636187518      -1.64386894277121
C         2.66086817883140      -1.63645437108425       2.36679529860677
C        -2.74623952088179       2.28738350037111       1.60583005936175
C        -2.64096958720917      -2.34196351520704      -1.70367368569921
C         2.72155626035439       1.67817602488217      -2.26479653629636
C         3.69513222971418      -1.11766930577776       3.36137853214643
C        -3.79563166609225       3.26197831718256       1.07758162013475
C        -3.69102676322775      -3.33519144291335      -1.21292781158047
C         3.78847975040116       1.17869217458271      -3.23548083055387
H         1.37136787446682      -1.67681884263371      -0.03128587436211
H         0.19671234250498      -1.71938172775709       1.28993779362734
H        -0.24884276696900       1.28154507970975       1.71646100810974
H        -1.38792251931820      -0.06963820789857       1.66061863652073
H        -0.16275179487267      -1.28716260617507      -1.72449980379915
H        -1.32786590779812       0.04276264651477      -1.70964508496868
H         1.34459180603664       1.69355193405005       0.08174102218175
H         0.21428613290528       1.72321660210752      -1.27781317848416
H         1.39603860150418       0.09581197108858       2.51406009086650
H         2.62413819531862       0.17561403041917       1.19782121478210
H        -2.64859619401043       1.13062197972233      -0.21111679096555
H        -1.45864638052788       2.47973771741713      -0.10491628828318
H        -2.63300270280984      -1.18265386360123       0.11454110616107
H        -1.41396779722473      -2.50839757377177       0.05325243403269
H         1.47730368508147      -0.06244217180701      -2.47169699775983
H         2.65980978787860      -0.14465686048484      -1.11434285411955
H         3.18079501562540      -2.23502030976941       1.58728208776473
H         1.95104149646079      -2.30175043025973       2.90563022004270
H        -2.06116638985726       2.83745190800227       2.28774491823252
H        -3.25683816875127       1.49056754141058       2.18938805037252
H        -1.92060621857538      -2.88013108307416      -2.35820084621370
H        -3.14393455340887      -1.55555376387294      -2.30758529733064
H         3.21366414813622       2.27043623956254      -1.46278468892505
H         2.02370945362737       2.34595975230438      -2.81619099721984
H         3.19831165899207      -0.54070297599940       4.17032362960476
H         4.42804186658130      -0.46530481315836       2.84346509712427
H         4.23780354719904      -1.97316865119545       3.81631843164813
H        -4.51438989114509       2.73374724911028       0.41574108341081
H        -3.30869716102746       4.08365394095441       0.51015776832678
H        -4.35504083470567       3.70326985099914       1.92939240158952
H        -4.44345567572276      -2.81950532455853      -0.57921362764218
H        -3.21035705164750      -4.14692810034301      -0.62616386694087
H        -4.21011401907708      -3.78782087647865      -2.08406269162351
H         3.31953043487828       0.60320182364756      -4.06201414254193
H         4.51967253550667       0.53186310509597      -2.70573008791401
H         4.33000320645706       2.04516644986510      -3.67047798686283
S         8.31306833943556      -0.67478166928293       2.75943234836990
O         8.96280809614362      -0.54163194006123       4.14445615634654
O         9.19837280042599       0.21357786963840       1.87334238090250
O         7.02536142509121       0.14907366288085       2.89938980432796
C         8.08836869831099      -2.37624047385044       2.17023537213022
F         7.27267864360502      -3.06440485895598       3.04814516174274
F         9.31787504227441      -3.00290654467526       2.09606262198540
F         7.50478582472359      -2.35733307886529       0.91778525429950
