35
C11H21ClN2 optimized with ADF in AMS.
N        -1.07944649777686      -1.82257104451356       0.28736362492743
N         1.09416803598806      -1.79925551841399       0.18587062955636
C        -2.45982681435701      -1.44121530033525       0.62296078542224
C         2.49096308130634      -1.38918690286405       0.39417844426746
C        -2.87833088560282      -0.15601452283624      -0.08734270002213
C         2.81623864661075      -0.09803647649976      -0.35245815524027
C         0.03166924017895      -1.33800898066373       0.86355003124196
C        -0.71669176376361      -2.54088201986246      -0.82583245215537
C         0.64519613941786      -2.52623186286858      -0.88937944757001
C        -2.29538971200461       1.10768527067817       0.53906823611819
C         2.26617386428180       1.15469090709827       0.32323547176251
C        -2.64869457071596       2.34853637186909      -0.27736038149334
C         2.51973390388215       2.40087610200060      -0.52151975864698
H        -3.08911895730486      -2.29427780977470       0.32884297471939
H        -2.51683100743931      -1.34586935286134       1.71978300384177
H         2.64489256623333      -1.28918040403451       1.48115654512739
H         3.10861190114013      -2.23027760349945       0.04577360570391
H        -3.98211556821080      -0.11401495072147      -0.07933431411893
H        -2.52873182718264      -0.20348180760415      -1.13675114541557
H         2.37315306354224      -0.15594286847900      -1.36540975766813
H         3.91487758337549      -0.03289987614912      -0.44520937831964
H         0.06619169444024      -0.71671162966049       1.74731901606049
H        -1.45123899404695      -2.95847986711817      -1.50059249424647
H         1.32232240031276      -2.92907825883427      -1.62993818343954
H        -2.64334626866915       1.20703688750195       1.58567351894407
H        -1.19567510768260       1.02004579966307       0.53631640716624
H         1.17270717029005       1.04465335558085       0.41893653985008
H         2.70494818705923       1.26285986362515       1.33439725823170
H        -3.73978359914499       2.45572991454307      -0.39576018540504
H        -2.18315559692277       2.25742833814650      -1.27189706086471
H        -2.26557423803460       3.26204009608040       0.20131171413723
H         1.96556433334046       2.30084288931598      -1.46864168333186
H         3.59294223820595       2.52770572304478      -0.74081659545319
H         2.16643018862495       3.30736043665098      -0.00830459407817
Cl       -0.12459115647121       0.33953242999541      -2.08862381520905
