36
C10H17F3N2O3S optimized with ADF in AMS.
N         1.07007873870857       0.05789245687792       0.93683814975592
N        -0.89163784664435      -0.13239955200798       0.02544306670283
C         2.41148050137617      -0.29318909625412       1.43033672478897
C        -2.05258678922481      -0.75586125226779      -0.63770147692787
C         0.18407150423410      -0.81669138032426       0.44654013401347
C         3.48543530563070       0.09452965961880       0.41750830832217
C        -3.36030405617997      -0.00797287804661      -0.41411243703667
C         0.55076074821995       1.32881437200565       0.83064864227461
C        -0.68261408621757       1.21259758645108       0.25543671099422
C         3.35187480501385      -0.63929348555262      -0.91455097354344
C        -3.81680565896187       0.03508088438862       1.04061548102587
H         2.38444702274640      -1.37615340078129       1.62180706090140
H         2.53687994058741       0.19922349913395       2.40430612482653
H        -2.12036940572063      -1.77578785652485      -0.23154080858083
H        -1.82003708257448      -0.81589150992020      -1.71328753631008
H         0.29471203580855      -1.89759094406744       0.53434703294256
H         3.47419620976179       1.18725488717966       0.25408416420204
H         4.45704571646901      -0.14033477641346       0.88397425803473
H        -3.29065982016995       1.00876338103249      -0.84046345221210
H        -4.11183585054641      -0.53105148646101      -1.03023382649527
H         1.08721220551622       2.19784185180500       1.19025125214738
H        -1.42361687907926       1.96398653793172       0.01957066728897
H         2.39882122757000      -0.39858209780699      -1.41282774119294
H         3.39384351398288      -1.72995432123449      -0.76646617620746
H         4.16331355660189      -0.35815283903180      -1.60220597249190
H        -3.10503842060162       0.57570791787067       1.67947521878427
H        -3.90810604401191      -0.98185819019539       1.45028360081657
H        -4.79546011978445       0.53030048033428       1.12149904300674
S         0.47054000627686      -2.59397341456237       3.52685367605337
O         0.85377488225773      -2.97178254997305       2.13528526179931
O         1.10570796203992      -1.35412421865332       4.00128689772544
O         0.36820966762069      -3.70827900022508       4.46386048165610
C        -1.34185734914316      -2.04356901620393       3.29327306126298
F        -2.09520767126989      -2.24626216146788       4.39753090061729
F        -1.95413719655219      -2.70802771962937       2.25403879888659
F        -1.41610490414016      -0.70629568542451       2.98995674576822
