41
C11H24BF4N optimized with ForceField in AMS.
N        -0.22870630607121       0.30872154394930      -0.16514671378386
C        -0.91819172853592       1.28670795702123       0.73842747762237
C        -1.12972420266945       0.01377729556106      -1.32556838874127
C         0.11583154680705      -0.93471564932352       0.60987438401263
C         0.99918177077321       0.96513084416291      -0.73389312458623
C        -2.32635161895936       0.84496029256172       1.18882847510369
C        -2.51992032845484      -0.50392651911612      -0.92240890731633
C        -3.21370892781229       0.49434937866079      -0.00202136519086
C         0.88682412019450      -2.02126110400294      -0.17715958609513
C         2.12751907430799       1.27956094095886       0.27962942852706
C         1.22594688360407      -3.20726701919756       0.72243962058276
C         3.28090100576646       2.01281699491577      -0.40098709931622
H        -0.32540551524121       1.46002106975428       1.66210318802109
H        -1.02455813378370       2.27494834739805       0.23448173802197
H        -1.29035170685892       0.93841351233046      -1.92824264795800
H        -0.66664982794344      -0.71042534714740      -2.02727461991733
H         0.70425935720079      -0.66882250521933       1.51535718811391
H        -0.79575481072948      -1.41822973994040       1.01022740900855
H         1.43066903280288       0.34229156315471      -1.54897770473215
H         0.71876361957783       1.92409666884733      -1.22815743779777
H        -2.26877072559470      -0.01443730591618       1.88842766465058
H        -2.80015863846666       1.67903273947368       1.75068823503324
H        -3.13562104405352      -0.63213690855137      -1.83900002483301
H        -2.45523706290428      -1.50084901608219      -0.44052405673729
H        -4.16916498273144       0.05957427605920       0.36285394224343
H        -3.45331984692580       1.41983917502274      -0.57086360243805
H         0.27723726870989      -2.40653087502799      -1.01868516018527
H         1.83645532677346      -1.62294467388589      -0.58093815307673
H         1.75752768738269       1.92460660002687       1.10075062758193
H         2.53722812984202       0.34674828592733       0.71646830672550
H         1.78819551997988      -3.96759794577115       0.14027989161314
H         0.29606165306344      -3.67568169056861       1.11015845565124
H         1.85643495730937      -2.87916364093959       1.57592107712347
H         4.08917978951866       2.20210341875359       0.33675698103333
H         2.93506843702112       2.98854212404922      -0.80371798687588
H         3.69454524622417       1.39980164408748      -1.22966590464957
B         5.78035263780968      -1.32217656075591      -0.16242090976329
F         4.39985030201275      -1.58976799778770      -0.34923541033552
F         6.53962646106797      -2.09900794004089      -1.07698326294625
F         6.15110395776776      -1.65763530107661       1.16658816390255
F         6.03128037311858       0.05652494217480      -0.39039755069643
