49
C13H16F18NP optimized with DFTB in AMS.
N         0.70628916917110       0.19836224541063      -0.98763331334723
C         0.60741008789815      -1.29534480932454      -1.05806021767008
C        -0.34146961310770       0.56956824806038       0.01615413517960
C        -0.88262315987007      -1.60281243205190      -0.94499939495357
C        -1.50635382576652      -0.38122977845937      -0.25134438688733
C         2.05564017349381       0.65877460002791      -0.51502372465184
C         0.37451228954724       0.81773677770133      -2.29953287424478
C         3.20914533133801       0.22617923256982      -1.40507642471081
H         1.16128351027590      -1.70133850879281      -0.20852474759178
H         1.04846466282218      -1.65180329888101      -1.98614753077331
H        -0.59760883988439       1.62308573365705      -0.09897721467659
H         0.07632176372552       0.40548526359291       1.01212579803017
H        -1.03371984897940      -2.51495875261645      -0.36591062330855
H        -1.32056683580361      -1.75162191180152      -1.93306186898588
H        -2.25232858608558       0.09067128195584      -0.89362434138736
H        -1.99080458982597      -0.65283761749405       0.68780495669945
H         2.00715445250376       1.74931561176231      -0.44984203515166
H         2.18943332856502       0.25419132689301       0.49219331640174
H         1.07587203180566       0.46668686919474      -3.04821683859898
H        -0.63228367239452       0.52845333926278      -2.58771896492259
H         0.43982588531406       1.89997825075620      -2.20404250039000
H         4.13326634889957       0.56667606235624      -0.93897838937144
H         3.25114057233440      -0.85594628911988      -1.50519127710612
H         3.14653428908103       0.66482051455986      -2.39783430859683
P         2.60462017460947      -1.53774539420354      -5.31799220210400
F         2.93407702093442      -3.12544167479944      -4.91334146805876
F         2.05317787585336      -1.28773087262019      -3.69534154993196
F         3.10120398976431      -1.71020810897260      -6.90118646653433
C         4.45699518839252      -1.20590404581000      -4.75072703737835
C         0.83579696605838      -2.21851483962273      -5.85754740494206
C         2.11363028076410       0.40192759618787      -5.57499670241993
C         5.59377783646318      -1.93707935564513      -5.52483379420256
C        -0.22873820430579      -2.44926543566180      -4.75314102411133
C         2.47983840122169       1.14227541524181      -6.88496600662561
F         4.57415427219138      -1.57527493574746      -3.45683544711674
F         4.79035139204995       0.09761190913145      -4.80894282419606
F         1.01667086419926      -3.41442097308196      -6.43993250664492
F         0.27015445595617      -1.42617901563288      -6.78542764110986
F         2.63046082673539       1.13772803016345      -4.55549985899880
F         0.77345935987311       0.52202668633518      -5.42071373257266
F         6.74162957894247      -1.79011305836966      -4.85375936980638
F         5.75716736371025      -1.39763936487406      -6.72814157203437
F         5.37648175345446      -3.23649326831716      -5.67020309197978
F         0.23039273686277      -3.23515037451533      -3.77732020934214
F        -0.60959969829615      -1.29654051859730      -4.17273326919737
F        -1.32547351476500      -3.01677159219464      -5.24644297932834
F         3.77855942705169       1.03356716986725      -7.14534397861859
F         2.18841833841490       2.44285301690625      -6.78248618484788
F         1.79966612160604       0.64961076081320      -7.91261836598152
