40
C12H25NO2 optimized with ForceField in AMS.
N        -0.11981388206075       0.02508262986944      -0.07375960861635
C        -1.04618727906039       0.55048737511037      -1.12930520999416
C        -0.64319743636995      -1.29180801803075       0.41755964146827
C         1.20532978307949      -0.20771004532788      -0.74463675160489
C        -2.51394262226752       0.66008974865551      -0.68070509989032
C        -2.11079349367678      -1.25052447816483       0.88836722948920
C         0.00753540797238       0.97873402962892       1.08306939172377
C        -3.02399486322798      -0.69300443590491      -0.19766874214553
C         2.34476076506243      -0.71236046390381       0.17506632954078
C         0.63396848700921       2.34792394889642       0.75740993317126
C         3.62305978388814      -0.94978357126109      -0.62461071911668
H        -1.03286035040313      -0.12335724888915      -2.01823506797769
H        -0.71250936387373       1.53879955859300      -1.50736115803125
H        -0.04340744057073      -1.66324558996563       1.27561530100287
H        -0.57152241854838      -2.06237444437574      -0.38437466722430
H         1.55078615559690       0.71993270654359      -1.25372517785230
H         1.08631432374982      -0.95530086463919      -1.56339781704070
H        -3.13200123553051       0.98658340049303      -1.54490369669143
H        -2.63867627923077       1.42859549315426       0.10956819616093
H        -2.21227956442789      -0.65280106358583       1.81816004967568
H        -2.43846139044006      -2.28376925249708       1.13479415584431
H        -0.97818541015054       1.18610064833119       1.54187218004766
H         0.60134376147371       0.51871632137183       1.90231281892648
H        -4.05478696438140      -0.58262588183647       0.20268698681133
H        -3.06163452041148      -1.40426524867157      -1.05258000269889
H         2.57573502498634       0.03023165798577       0.96424308913168
H         2.07068599768495      -1.67191041758740       0.65760054252830
H         0.68995789164803       2.94505327330259       1.69209137547584
H         1.66924122536376       2.25370658885374       0.37464658260566
H         0.01246451225630       2.92394191234917       0.04333470823553
H         4.42292911010461      -1.31675032670454       0.05285095130863
H         3.44949583397567      -1.71417040407740      -1.41201100629937
H         3.96420743845774      -0.00413030970041      -1.09757860755899
C         5.30337046596034       3.38087034174213       0.83977236645649
C         5.00300232771162       2.05997674634768       1.47555089336419
O         5.63661823463987       1.06818150255952       1.15313009615048
O         4.11905527274019       1.96877768159450       2.31212704127839
H         6.39096715695869       3.46551883243574       0.62964544131712
H         4.74043974819693       3.46969991887530      -0.11265656666713
H         5.00759509581487       4.21103655532998       1.51613554919515
