33
C9H17BF4N2 optimized with DFTB in AMS.
N         1.58218334484184       0.85394589533513       0.38138871784287
N        -0.28875680052427       0.08080267460811      -0.34696369219606
C         2.93498152950594       0.85935207790460       0.92879980783183
C        -1.31972034196422      -0.89243933325477      -0.69663297643771
C         0.95680365009928      -0.24730860538376      -0.02119755285778
C         3.98574501647015       0.98488923944777      -0.17615572407306
C        -2.43129553040987      -0.90343949483541       0.35681065657810
C         0.71834570769813       1.91325382927520       0.30972318185860
C        -0.46555923383682       1.42634149804322      -0.14771480797235
C         3.98667113286949      -0.21815091882033      -1.11690711787838
C        -1.91965898763532      -1.34257339078335       1.72632578469955
H         3.05427122727642      -0.08147788522295       1.47494677624391
H         3.00859022404009       1.69904603303058       1.62393386263486
H        -0.82966784006243      -1.86904190692991      -0.74165467090925
H        -1.72124502208024      -0.63435383172275      -1.68121296893574
H         1.38649320211442      -1.23233409599968      -0.07764941022891
H         3.81461238699685       1.90644991109622      -0.74229599161240
H         4.96025125171014       1.06547497092958       0.31381453321064
H        -2.88129546722715       0.09256918953027       0.42170183205217
H        -3.20165799656660      -1.59746922392266       0.00758465903468
H         1.00681327825865       2.91012906391367       0.59390346993203
H        -1.39981958559812       1.92135331416777      -0.34597557289392
H         3.07278646398675      -0.24163990189762      -1.71191057156944
H         4.05487784636967      -1.14445884846707      -0.54627742083903
H         4.83761237737523      -0.15608606181357      -1.79463968922986
H        -1.15193026580852      -0.65972867897561       2.08845183019807
H        -1.48617031552057      -2.33993217103372       1.66628333694008
H        -2.74387735045269      -1.35616220653693       2.43889298573692
B         1.56726206543957      -2.50881250755891       1.74097009307834
F         1.74967000239256      -3.44082824481558       2.71388558215535
F         1.13468632917661      -1.26174602395379       2.27298994574466
F         0.59216398223819      -2.90969661306648       0.79143015113177
F         2.76578479702686      -2.23609723368726       1.02784683942948
