42
C12H16F6N2O4S2 optimized with DFTB in AMS.
N         1.08545874363279       0.13943631966179       0.70696164521852
C        -1.22798837746214       0.86154461194784       0.38240193954144
C        -2.42590944038452       0.89202686366548      -0.56611967330438
C        -0.09803575440934      -0.02505690559105      -0.14864371067987
C        -3.50688603208706       1.82273256572570      -0.00204095102979
C        -4.70079382786775       1.92575511209243      -0.94761307460665
C         1.23568396353361      -0.63800759751386       1.78966937875176
C         1.94663210712500       1.13788208545891       0.44522116029575
C         2.32177139120616      -0.47076614436340       2.62628925822716
C         3.03148590690345       1.35925252618923       1.26365204427247
C         3.23284743652293       0.54180226196155       2.37010435478473
H        -1.53442041451149       0.49713517369547       1.36574327974776
H        -0.84333779429915       1.87515648704986       0.51061399741359
H        -2.82979767418620      -0.11862626091673      -0.69180326311266
H        -2.10550513110310       1.25095911519224      -1.55063817897733
H        -0.38339640385852      -1.07969715795805      -0.13966108965552
H         0.17940513804455       0.26209763179892      -1.16617515775052
H        -3.07998482651307       2.81746456648421       0.16020134722041
H        -3.83867705051471       1.44117565326725       0.96858327734274
H        -4.39169307953772       2.32977035674140      -1.91279708714299
H        -5.45427141482182       2.58685808350007      -0.52000928507637
H        -5.15009327408311       0.94450784058833      -1.10938365941587
H         0.47665371448807      -1.38858223240435       1.96808952063355
H         1.73871614774594       1.75217526248796      -0.42176815275985
H         2.41700318250877      -1.10573099164460       3.49729605506122
H         3.69856992768550       2.18345434575579       1.04820783591803
H         4.07117763034252       0.71228199581618       3.03364532670682
N        -1.15934974809338       2.71220393308294       2.73400013649409
S        -1.04925756121958       4.31174218041727       2.57779542315457
S        -0.04772263334740       1.97861102226048       3.60734656647338
C         0.44165723669995       4.66245342322289       1.48181674631441
C        -0.32436830246229       2.31583029931038       5.43511360109594
O        -2.16192774798703       4.70488021579586       1.75688265496683
O        -0.78719422963722       5.02300381522339       3.80004601110566
O         1.32123559316537       2.39581133180670       3.35410269439326
O        -0.31768752689859       0.55430318046331       3.47457503900369
F         0.18042416573783       5.69273075948749       0.69610601802293
F         0.68508705578386       3.60096617388354       0.69218303310072
F         1.53394000915480       4.91874364808323       2.17303128626920
F         0.03548673701963       1.23244882542893       6.11173841452728
F        -1.59939529473050       2.56216527803182       5.66940101987302
F         0.40830553421494       3.33138383881324       5.83996744758090
