34
C10H21NO2 optimized with DFTB in AMS.
N        -0.30181479211660       0.20460542006757       0.19685141527682
C        -1.34148055377904       0.51296585948789      -0.83413584214383
C        -0.68824420800275      -1.15715205701944       0.68957171341894
C        -2.64194492808773      -0.05697527298027      -0.26852893511427
C        -2.21022702464414      -1.13492644448448       0.73835238902222
C         1.06076055856894       0.20565251072022      -0.41985558210754
C        -0.37068089254149       1.20387811957099       1.29707280933196
C         2.18619584239160      -0.03888531400644       0.58897584050722
C         3.45816684800873      -0.46222335879462      -0.14207715076227
H        -1.05787357388058       0.00368673006207      -1.75867422206274
H        -1.37063742366502       1.58901691245054      -1.00967158677654
H        -0.22696049067154      -1.31876970343949       1.66811965586860
H        -0.31753034975616      -1.88753837608476      -0.03402100379898
H        -3.24812866288113      -0.47353423162959      -1.07527945069409
H        -3.22377966432308       0.72437824965375       0.22396833302157
H        -2.53643993649772      -0.87715369933157       1.74905055681176
H        -2.61385091548578      -2.11465339206749       0.47886579728022
H         1.18974116975825       1.17509828719189      -0.91083652665233
H         1.06197992251406      -0.57369828761383      -1.18784804727947
H        -0.09533380539262       2.18161304346459       0.90460437040230
H        -1.37801764231028       1.21602282197522       1.70365396919351
H         0.31002851310575       0.88549733280240       2.08432730219059
H         2.38052314071785       0.87653616964599       1.15295029629682
H         1.89774287216991      -0.80991739738087       1.30675922066432
H         4.25956116793517      -0.60874687095294       0.58091993737038
H         3.30030387771553      -1.39809721993304      -0.67973666132772
H         3.76850455287763       0.30240073578646      -0.85597545680189
C        -0.15858100281133      -0.97924976498136       5.46182591745621
C        -0.26775940281994      -0.64210132853963       3.95873922885810
O         0.78598295846334      -0.76225550210825       3.28616782282845
O        -1.38210335246834      -0.28098231136747       3.53043570822573
H         0.10913151733182      -2.02966458777656       5.56906624513162
H         0.62981568705134      -0.37469691064735       5.90789739642877
H        -1.10456667707465      -0.78692337494015       5.96391699273555
