37
C9H17F2N3O4S2 optimized with ForceField in AMS.
N         1.00714128623713       0.25592006552051       0.47499893229343
N        -1.01407756307427       0.31935158530803      -0.44876958460704
C         2.25496452485479      -0.25260044272640       1.04074462138176
C        -2.26980082771723      -0.11318132427639      -1.05919171055594
C        -0.00933747340183      -0.47218778258270      -0.02567389250091
C         3.43241839435523      -0.00011936975285       0.09255000407672
C        -3.44944024699022       0.09439011839614      -0.10279509004704
C         0.63357350353946       1.54641340147756       0.36674193838315
C        -0.62079456522125       1.58683609280957      -0.20841429839298
C         3.28221261980439      -0.77096824667474      -1.21808081458829
C        -3.30850446939824      -0.74525600380513       1.16610142916419
H         2.16750865228403      -1.34296575449953       1.24214974855350
H         2.44890066949121       0.25138905353669       2.01223553790451
H        -2.20781968992019      -1.18766606129563      -1.34038667080683
H        -2.44320755068960       0.46649099181022      -1.99140382331904
H        -0.01753507927896      -1.55392209630519      -0.08093552378012
H         3.51997188788456       1.08667417305681      -0.12398573219863
H         4.36956284743511      -0.32681804655776       0.59303103927739
H        -3.53226727536623       1.16861634103781       0.17007206225639
H        -4.38626687519280      -0.20050035510509      -0.62339708158949
H         1.22724827697735       2.39145287035106       0.68723478476136
H        -1.20021057682280       2.47247701408347      -0.43564218824327
H         2.41332455479490      -0.38861786314273      -1.79486715354016
H         3.14044170464270      -1.85434300286580      -1.01613428211083
H         4.19793287472452      -0.64122532661848      -1.83234119061195
H        -2.44296011787408      -0.39497372425804       1.76788701327511
H        -3.16615828230238      -1.81653087988031       0.90803705952753
H        -4.22786461595711      -0.64677868833741       1.78073704005752
N        -0.48582783926184       5.91831155237694      -1.21394558705498
S         0.94086595896714       5.49240394659036      -0.53665129427166
S        -0.65159895678417       6.04687691278703      -2.83625458913504
F         2.00174389218151       6.78390001926863      -0.62528992432699
F        -0.70504866180438       4.51461568529326      -3.50791280717459
O         0.72440688081349       5.12644007940610       0.90426138605960
O         1.53373015032348       4.32645732010423      -1.27731310949267
O         0.51824865462327       6.79216080796341      -3.41577165962885
O        -1.92658910827667       6.77428373350636      -3.15595147789487
