58
C16H36BF4N optimized with ForceField in AMS.
N        -0.00173274329350      -0.00080126487082       0.00131576973313
C         0.84250209014477      -1.03137214952961       0.70389853309490
C        -0.87248456900588       0.68162726365989       1.02326312361434
C        -0.82772428914385      -0.69448563976243      -1.04954160553112
C         0.85116035356700       1.04121838661476      -0.67257413342752
C         1.89416015188457      -0.48420290278089       1.70401469086499
C        -1.93888535689974       1.66009651542586       0.46572606418885
C        -1.89810208542625      -1.68812082391084      -0.52869013159011
C         1.93488010909682       0.50881504811837      -1.64569734086339
C         2.66813074375746      -1.63667802636764       2.35910745977974
C        -2.74646150761687       2.28901966979321       1.60961847577248
C        -2.65425823175514      -2.32985535154051      -1.70024988516713
C         2.72599262338963       1.67183946374432      -2.25855490418592
C         3.70207015540455      -1.11744837816864       3.35498006547488
C        -3.79208547981221       3.26690581577269       1.07973947131889
C        -3.70355425393225      -3.32280195968859      -1.20743303432756
C         3.78817965213105       1.17051612800877      -3.23349220205762
H         1.36674783186153      -1.67585282761907      -0.03639663707597
H         0.19356126935394      -1.71800562962931       1.28816841478728
H        -0.24428728789575       1.27908960420912       1.71772900847195
H        -1.38766442146868      -0.07112155187675       1.66061537892264
H        -0.16801372993525      -1.28269506187872      -1.72240566360851
H        -1.33141841928315       0.05141238192177      -1.70394322290143
H         1.34708024734182       1.68786544046923       0.08521100002691
H         0.21237438906023       1.72342013540010      -1.27289949382509
H         1.40160525074414       0.09362945484557       2.51110652915069
H         2.62391317047601       0.17472334907764       1.19308568347290
H        -2.64575602420913       1.13715374934721      -0.20838402868564
H        -1.45614044099610       2.48261698309823      -0.09854257346315
H        -2.63624105469543      -1.17498300189552       0.11896738178240
H        -1.42320653585275      -2.50249116029148       0.05383463734789
H         1.46876550362172      -0.05770644468847      -2.47628950904143
H         2.64969613962668      -0.15622364764821      -1.12182690365614
H         3.18968349336032      -2.23123347058083       1.57826956567322
H         1.96146247529840      -2.30593965737968       2.89635097135351
H        -2.06330633419740       2.83560443194799       2.29553475668066
H        -3.26152760192969       1.49236910753673       2.18865791242224
H        -1.93858056383976      -2.86665533307442      -2.36027335454089
H        -3.15973417328469      -1.54140453091295      -2.29869083459042
H         3.22352022953315       2.24935559807868      -1.45057777138516
H         2.03539764605596       2.35207314772218      -2.80294425140763
H         3.20537069692135      -0.53559682183328       4.16017892791985
H         4.44444644467799      -0.47194298962726       2.83978735444550
H         4.23676430949793      -1.97421547321341       3.81667645482885
H        -4.51116454091615       2.74144304257408       0.41637780151488
H        -3.30227431238300       4.08745273117139       0.51368399660382
H        -4.35219616624751       3.70972396456547       1.93018213952239
H        -4.45392472849884      -2.80755188545119      -0.57130840767688
H        -3.22223338281856      -4.13539546885689      -0.62295333283675
H        -4.22561044413086      -3.77455155710990      -2.07715841196027
H         3.31576783743445       0.59516164875714      -4.05768859172558
H         4.52093313915283       0.52345243550878      -2.70662421275983
H         4.32895044364674       2.03539214529805      -3.67220196111273
B         4.11894749697569       5.50045503462263      -2.51346424245407
F         4.76774795873329       4.33175490102932      -2.03627236165294
F         2.81846514935293       5.58601237784444      -1.94891009023986
F         4.01767810633016       5.44163060810144      -3.92876282746799
F         4.87436038593531       6.64318593542225      -2.13934249755106
