43
C11H24F6NP optimized with DFTB in AMS.
N         0.86012562128475       0.35878429823651      -0.06597254743648
C         0.82190473308946       1.48586709712296       0.92955169807701
C         0.04667795238970       0.76224609416430      -1.26652426062365
C         0.33310097712221      -0.89651979614594       0.56475735314277
C         2.27919029753660       0.18592635711304      -0.54695314674674
C        -0.59576699210244       1.87748102190108       1.32919460782582
C        -1.39202427424538       1.12310518697231      -0.92241560562461
C        -1.43464598537986       2.24958781033623       0.10781950447040
C         0.49125678493934      -2.16014695532918      -0.28027280538559
C         3.28604529003472      -0.26277301909966       0.52267586735622
C        -0.21145472270645      -3.32524979009450       0.41648696558725
C         4.40647948415139       0.76261119020963       0.69799923401261
H         1.38993781312856       1.17383337195942       1.80766392896164
H         1.32823266063125       2.33216905581267       0.46255890750918
H         0.54568472256030       1.63035354513488      -1.70006453815395
H         0.08062374688994      -0.05891836676811      -1.98454697340187
H         0.85011905900666      -1.02609219262027       1.51830583171091
H        -0.72452287808197      -0.73607692849123       0.77948177211321
H         2.24582307636694      -0.53037330654758      -1.36982544351512
H         2.57306484643499       1.15112850532590      -0.96116581193265
H        -1.07738301726046       1.07182311143306       1.89242782904338
H        -0.51276439728767       2.74146193113356       1.99383902671947
H        -1.86795484329728       1.45505789138330      -1.84879478152118
H        -1.94425873278100       0.24929440502286      -0.56249947680988
H        -2.46745673972125       2.43508558370364       0.41215898739343
H        -1.03800601654398       3.16351372816661      -0.34181372573479
H         0.05362371919045      -2.01865869259436      -1.27147095373975
H         1.54856915422799      -2.40561873966400      -0.40524052874704
H         2.80094495593025      -0.42329340682963       1.48844410372660
H         3.71645038495106      -1.22183874278937       0.21761715198470
H        -0.09485278710786      -4.23076690359075      -0.17768889070403
H        -1.27596574764408      -3.11858153197547       0.53152049378018
H         0.21965951907575      -3.49784884236958       1.40310600637546
H         5.13195396290982       0.39330747110252       1.42270448223821
H         4.00192167986561       1.70864364084970       1.05413257698872
H         4.91409802555847       0.93856902043763      -0.24970826018409
P         2.41603756518823       3.99692089778787      -1.81999354426976
F         0.89027242566025       3.75914555513113      -1.14602029200901
F         2.53962991822304       5.41330327466595      -1.03204662700274
F         3.04731453197466       3.19831620517616      -0.47836461678573
F         3.91058532354597       4.13899855777474      -2.44002461161220
F         2.25111202085762       2.49538489048875      -2.55757971266483
F         1.73649346903377       4.70549080556323      -3.11448741241147
