30
C8H13F3N2O3S optimized with DFTB in AMS.
N         1.02459826108835      -0.17667187101071      -0.47507470898460
N        -1.00319954665373      -0.40334166864491       0.21224872003541
C         2.20303830029167       0.31818322312180      -1.18236593554423
C         3.00982661786795       1.24910949616826      -0.27563991555302
C        -0.21818869877882       0.26190203601351      -0.64151623234373
C         1.04409750411592      -1.12840453560543       0.50378861907149
C        -0.23495394706001      -1.27816236567887       0.93604435252323
C         2.24855303498476       2.52232224347938       0.07954299378683
C        -2.44004256532668      -0.24273518657889       0.34880902182145
H         1.86156921632832       0.83553277834551      -2.08273047841036
H         2.80799391821742      -0.54924596138198      -1.45794154673870
H         3.28633604612358       0.70877075522276       0.63218192651343
H         3.93112802750160       1.49533846282372      -0.80766294580722
H        -0.54056826509479       1.00933446621332      -1.34566028114916
H         1.95492119631173      -1.63494057141402       0.78082105619100
H        -0.65855252041098      -1.92286689814184       1.68570050999625
H         1.32449355326353       2.28800267469598       0.61225762116969
H         1.99683507361032       3.08624109851807      -0.82029729822019
H         2.86509603131143       3.15081469135428       0.72147412733076
H        -2.77698704037273       0.54087389016819      -0.32744210655724
H        -2.93317304575448      -1.18316433587816       0.09974365553650
H        -2.67549933935987       0.03020988302519       1.37795791560123
S         4.77359109446617      -2.07683104724672      -0.34650232691389
O         5.02815694644102      -0.73473319102161      -0.84244593949151
O         5.74786908340493      -3.07517491325815      -0.68933294314813
O         3.37717485824953      -2.48782153757154      -0.49189102303668
C         4.91656351754933      -1.86718702352799       1.49810164283151
F         3.80440227483957      -1.24142929747663       1.95072150360071
F         5.95403195420351      -1.11973772205895       1.84815661889043
F         4.99760510834149      -3.02715462185363       2.13690418029874
