43
C13H24F3NO2 optimized with ADF in AMS.
N        -0.35069383688191      -0.03757759946936       0.06985795984542
C        -1.28696423017003      -0.14364570880451      -1.12472259635456
C        -0.74414251942087      -1.10880528288687       1.08319882268312
C         1.03805405270526      -0.36523685358069      -0.45852089876718
C        -0.39751622649857       1.31907094094253       0.73175481272131
C        -2.75103088334135      -0.02522755181896      -0.74296388025312
C        -2.21411691470247      -1.05490160438607       1.46883322114829
C        -3.12032828667981      -1.13405274359733       0.24224907824882
C         2.17233763362629      -0.23383553884165       0.54198251259704
C        -0.01891869987088       2.48090943265301      -0.16493034888870
C         3.41416859601996      -0.93795997750986      -0.01637215933757
C         4.59254252792693      -0.88186750581562       0.95011532524988
H        -1.09855363716184      -1.15807803057880      -1.53378631088434
H        -0.96683238485914       0.62093420406276      -1.84616727561963
H        -0.09603776917394      -0.96287474615926       1.95823907647909
H        -0.47938735406467      -2.06581864556649       0.60194946017809
H         1.19768657243570       0.27943587255352      -1.33600361457259
H         0.96541496741339      -1.42149756475307      -0.77973920698886
H        -1.41579521306433       1.44857365755900       1.11832969374383
H         0.28005524473461       1.25227751278401       1.59571420893360
H        -3.33136435887168      -0.12701031482237      -1.67487807402981
H        -2.99273728240477       0.97104807268382      -0.32930221755686
H        -2.44119304470622      -0.15027587169457       2.06135608696502
H        -2.39095441041892      -1.91251101489182       2.13957302687292
H        -4.17869840172270      -1.06042348022514       0.53811053658921
H        -2.96654809447760      -2.10663402047612      -0.25623753811103
H         1.90703051872519      -0.72724576333677       1.49177145887091
H         2.40758418534395       0.82222020116268       0.76839312016419
H        -0.05727959817538       3.40424354483605       0.43244947712462
H         1.00080377649652       2.38577300441724      -0.56255527391377
H        -0.71784237916636       2.60514317931445      -1.00365054582059
H         3.69395836834997      -0.47840037792572      -0.98173236360332
H         3.14281739620136      -1.98639011371550      -0.22824269925919
H         4.32674521232455      -1.34792370709827       1.91279825964200
H         4.90186199037628       0.15715088790275       1.14944575734772
H         5.46147233324147      -1.42316241916880       0.54744051252496
C        -0.04382565468954      -3.78399694149142      -1.26627239246218
O        -1.05121278295298      -3.15558230579449      -1.67915460216684
O         0.87013188950243      -3.42120252355577      -0.48151154253674
C         0.09941859197283      -5.22786713937656      -1.84989960774454
F         0.97328975860048      -6.00936637837095      -1.15339610552323
F         0.55992545877175      -5.17124643190910      -3.14473760985242
F        -1.09357603159294      -5.89466784564990      -1.87964389008301
