55
C15H20F18NP optimized with ADF in AMS.
C         4.02139754315605      -0.36556592879848      -0.76074672953929
C         3.17593194406560       0.83756497245947      -1.16663836406756
H         1.46236585694391      -1.04686304223120      -2.09274512161281
H         0.82036349135425      -1.39424772222541      -0.44934701992846
H         3.27355149826570      -2.34325581874590      -1.39285277563008
H         3.03188124251113      -2.00147492312336       0.33451355600185
H         4.53401942212909      -0.19893756135086       0.19829684610852
H         4.78729329895464      -0.53511480444366      -1.52919477494327
H         3.47484309825195       1.79812817242192      -0.72586588584520
H         3.13133083806208       0.92418806305662      -2.25823148270081
H         0.64274395862583       0.41394028058992       1.09281967617700
C         1.63434713583140       0.73916118992829       0.75962647212760
H         2.40515545764856       0.15841902851291       1.27859236346553
H         1.76949814187134       1.80844045885382       0.96590281194482
C         0.77490151061154       1.36619323305199      -1.48371246965728
H         1.03252558883197       2.40178687804572      -1.20867906331195
H         1.02628072960791       1.22415348759803      -2.54336999013796
H        -0.94136435030767       1.01046051561073      -0.17364445828182
H        -3.26176668439270      -0.89675271203626      -2.54307992046826
C        -1.31359834603026      -0.07103183949653      -2.03506350322117
H        -0.99487663110979       0.00596075778007      -3.08775509976231
H        -0.93571150951268      -1.03793411747586      -1.66877338046819
C        -2.83730325092085      -0.06810491942192      -1.95675404225957
H        -3.24872710180347       0.87216966600303      -2.35746285683382
N         1.76038125164004       0.51028321432333      -0.70988060468071
C         1.65686261716484      -0.97211728821870      -1.01866411065254
C         3.02750607161689      -1.55306854076620      -0.67044359783382
H        -3.18630062779822      -0.17514453947858      -0.91730196783119
C        -0.70658868052819       1.09567125954896      -1.24952828594202
H        -1.21661601467483       2.02039969104889      -1.57801286614286
P         3.32664681608529      -0.80362947658940      -5.36625508766828
F         4.39201386848880      -2.06921811677808      -5.21857240780141
F         3.02712675881914      -0.89257306497197      -3.68653135856413
F         3.55967307495869      -0.64775272395347      -6.99735245800483
C         4.87281557904654       0.40515662271128      -5.05979334771349
C         1.96452947683411      -2.20614167266306      -5.74175057093864
C         2.00671802495058       0.71515975991349      -5.33486810659011
C         6.30744566297602      -0.15984875642047      -5.33234502970917
C         1.42015067372090      -3.07061274125646      -4.56673455857677
C         1.55349980730890       1.45945325071656      -6.62770725941406
F         4.94503829561491       0.86457823369953      -3.74572937851440
F         4.76978924051089       1.51721951282912      -5.85835715103289
F         2.52865624238303      -3.10986154534200      -6.61208757766264
F         0.83953563945872      -1.72203714362820      -6.37426492367683
F         2.47910637903205       1.72091411438298      -4.49544233563507
F         0.83136566311795       0.28382003859653      -4.73221439059844
F         7.20138796413494       0.87266445887261      -5.28675153501347
F         6.40983980738923      -0.73806445923672      -6.54419717249297
F         6.68438370499047      -1.04857861884836      -4.37791808812436
F         0.67189827414642      -4.09532179136454      -5.05296817886803
F         2.40764070129539      -3.60555097876069      -3.81001348100805
F         0.60432594566253      -2.34557707831421      -3.74280454801321
F         0.61819918043565       2.40128989918338      -6.28083092530383
F         0.98406189981765       0.62993801012670      -7.52239287854546
F         2.57683212545514       2.10282927527465      -7.22223955380183
