40
C10H15F6N3O4S2 optimized with DFTB in AMS.
N        -0.34351606692132      -1.36436326307640      -1.64768263053791
N         1.30445030146002      -0.96063848336634      -0.32509626694364
C        -1.47989950920622      -2.03857662062193      -2.26768973099775
C        -2.78470431620330      -1.30892831143413      -1.94733216991648
C         0.25432071508652      -1.75303824180667      -0.52711964363439
C         0.33827040385331      -0.30399410811413      -2.17725306304281
C         2.29356165556463      -1.15980659763009       0.73143015734932
C         1.38069425679356      -0.04991617204836      -1.34225904121636
C        -3.10631432375576      -1.33603357129669      -0.45485034956650
C         1.63400476726180      -1.14128359937952       2.10374659767088
H        -1.49333667525320      -3.06639703859696      -1.89273008715657
H        -1.29632945567433      -2.05973012309486      -3.34449861391776
H        -2.71649947343330      -0.27380489961902      -2.29630458636660
H        -3.58474484801106      -1.80319375088662      -2.50479396312399
H        -0.03643873448252      -2.58156391222369       0.09124461182789
H         0.04215936755412       0.16425784418814      -3.09940274553420
H         2.77262429052822      -2.12684662206643       0.54532613306012
H         3.03704596642147      -0.36427094582937       0.64243886126598
H         2.16194576620428       0.68803987065575      -1.39308496211289
H        -2.32343640999609      -0.83447762402713       0.11606289922910
H        -3.19053776170669      -2.36360044023233      -0.10189158014037
H        -4.05075316631623      -0.82491746815093      -0.27122877434015
H         1.08586645101622      -0.21145425347585       2.25431059013969
H         2.40598068295703      -1.22529466641931       2.86719488895995
H         0.94733709636353      -1.97979412334812       2.21077739081527
N        -0.09673506234530      -4.87106387127499      -1.79904721739857
S         1.36338065847639      -4.24361319508861      -2.01256505224316
S        -0.25085212944306      -5.99288274622829      -0.65361934082542
C         2.51280329363264      -5.54079685825771      -2.73934347338725
C        -0.68784980395364      -5.02358921993814       0.89580171623088
O         1.21440744041225      -3.25357757295724      -3.05904615758422
O         2.02730999195619      -3.79865021305854      -0.79335211764960
O         0.94808441217426      -6.71568800959007      -0.32915127828534
O        -1.46331673834739      -6.71178316463000      -0.91983941126259
F         3.26956464411631      -6.07485878920103      -1.80552847022781
F         3.28903524429746      -4.94540508866823      -3.63208273857475
F         1.81121917913307      -6.48269931807532      -3.34058348964231
F        -1.22691588428499      -5.80295530934745       1.81040681987840
F        -1.58331126764474      -4.07350143326628       0.57002364657507
F         0.35802604591584      -4.39763484811705       1.42853814742679
