47
C13H26F3NO3S optimized with ADF in AMS.
N         0.91169297572476      -0.21379744968872       0.62034775796282
C         2.19716079927178       0.32216682843782       0.00649604641446
C         1.42021472430788      -1.19652825646449       1.67029733241485
C         0.12719767524976       0.89359670444190       1.29130734093403
C         0.11121124613772      -0.93151018838212      -0.44413278224327
C         3.10222764334071      -0.89306403726236      -0.10294895314172
C         2.77688148618800      -1.71483821830089       1.16459790428765
C        -0.37205231576044       1.97077119971111       0.34708415840752
C        -1.26174560904597      -1.41880815393816      -0.01250543985260
C        -0.98618084104704       3.11525315169725       1.15919172483613
C        -1.90560451479894      -2.26532284822670      -1.11429336668757
C        -1.46636445823007       4.25631127790334       0.26908377133404
C        -3.29629156413327      -2.75667940927547      -0.72188282552398
H         2.60406067943373       1.02382837112913       0.74793942519540
H         1.96495985515412       0.82389149860369      -0.94039561624278
H         0.65745642148080      -1.97071145793356       1.81687184136820
H         1.55587085655378      -0.60899876857228       2.58790977063031
H        -0.70162886094737       0.41218367160345       1.83240625923848
H         0.81304277552783       1.34643174535462       2.02628578727755
H         0.01875444420485      -0.23249144003486      -1.28889525445203
H         0.72967810594550      -1.77904478271176      -0.77431409302844
H         2.90658035631340      -1.46608318038589      -1.02334532610860
H         4.15377637528799      -0.57428865502536      -0.12628080801972
H         3.52665244740236      -1.51489294690415       1.94277275094147
H         2.76028152226306      -2.79480097636799       0.96087095373221
H         0.47354940448366       2.37903470607592      -0.23209923007030
H        -1.11474815295404       1.57991607243213      -0.37202001836820
H        -1.19311512264451      -2.02412970021568       0.90710619397218
H        -1.91917259939565      -0.56346655374131       0.21216643390499
H        -0.22269348629095       3.47928096663524       1.86588235128640
H        -1.82566795871751       2.72791106574017       1.76438681220073
H        -1.96863935562752      -1.67125862363300      -2.04343168940931
H        -1.25560086074632      -3.12991781485619      -1.33862590966868
H        -2.26049649816081       3.92616868121273      -0.42089618787526
H        -0.63480098266651       4.65329310394101      -0.33503573582542
H        -1.86405462884095       5.08463704454462       0.87280180269194
H        -3.97271810346717      -1.91020069011052      -0.52374637897781
H        -3.25291511179013      -3.37334965111976       0.18980521353631
H        -3.74315636026439      -3.36609152862477      -1.52050334824532
S         3.13346550451554       2.33281387680083       3.31927955674179
O         3.25323238208166       0.94337062980660       2.79655080450341
O         3.69915274652134       2.56421118520537       4.64496655745874
O         1.81851420266615       2.94519898462431       3.03072650688640
C         4.28403242579740       3.27427503767789       2.16820631733609
F         3.85493630573107       3.18562079516462       0.86188177274873
F         5.54849675074082       2.77571571964257       2.20581280491610
F         4.34024306890389       4.59068331478969       2.48508694508209
