41
C13H24N2O2 optimized with DFTB in AMS.
N        -0.51325690159398      -0.74739311651638       1.13946587348666
N         1.48872457929637      -1.21770114452682       0.56305740616046
C        -1.65870224873332      -0.04156416632976       1.69998126917159
C         2.92864751687342      -1.08771410913510       0.39095267606294
C        -2.43194722472782       0.68386158317584       0.59564629737110
C         3.25014250453950      -0.28343267441428      -0.87308842807873
C         0.75423564112496      -0.35346760400722       1.27323842639285
C        -0.58642248241619      -1.85792050553672       0.33575023640976
C         0.68556825958445      -2.15553960388763      -0.03355514093997
C        -1.57095932083786       1.74506771625927      -0.09632790189975
C         2.72766928215795       1.15439728237000      -0.78668685229918
C        -2.37609216404817       2.52605486140205      -1.13169279408081
C         3.16554580536756       1.97878194384724      -1.99471628479462
H        -2.30144558002678      -0.76912996492411       2.20422452015395
H        -1.26960098751314       0.67811740686391       2.42572377002189
H         3.32065264103113      -0.57673276113447       1.27464963297369
H         3.36204383203722      -2.08962331517927       0.32834979853748
H        -3.30133214652613       1.15961092541306       1.05924299557393
H        -2.79683092697388      -0.04358745489227      -0.13796704569954
H         2.81930660459230      -0.78813763211162      -1.74399206796252
H         4.33803745734969      -0.27521681893848      -0.99099007392683
H         1.26966399886180       0.58674506016314       1.83596399462851
H        -1.51922223547564      -2.34157390020289       0.10329079157534
H         1.07739533712495      -2.94611527695484      -0.64975792221387
H        -1.17300762360975       2.43014983507430       0.65774622219002
H        -0.72169074325929       1.25891831796252      -0.58840336321119
H         1.63444955456175       1.13984953551864      -0.73702349564664
H         3.09377060018043       1.62062906636806       0.13301450824856
H        -3.21430879754919       3.03870496031489      -0.65774835276505
H        -2.76811999918527       1.85786583840149      -1.90076903973020
H        -1.74033276457965       3.27105955776475      -1.61040558049575
H         2.78296564273577       1.54120122535623      -2.91825305898079
H         4.25379357415484       2.02349261038460      -2.05521398177786
H         2.78076044513902       2.99464682054485      -1.90595244606816
C         1.78891764611026       3.82555109896482       3.25035810413641
C         1.19968462287065       2.52369776576366       2.69071276360380
O         2.04230326283443       1.64342056357496       2.32743565888104
O        -0.02648396918609       2.41043313453801       2.62352207206293
H         2.87613843903258       3.78746155948470       3.25138906314152
H         1.44698236591217       4.65838065534489       2.63764356137063
H         1.42391867366896       3.97212706503600       4.26582820331643
