31
C7H16F6NP optimized with DFTB in AMS.
N         0.74542195689660      -0.06041567234312       0.06023178436352
C        -0.36231355712997      -1.03367912739092      -0.18330706473308
C         0.07905143899598       1.06238958863154       0.79462771230881
C        -1.59935242969357      -0.17936526345810      -0.46032821034359
C        -1.29631786865770       1.19897210208441       0.15096829513409
C         1.83345384060423      -0.64139369368529       0.92118434993297
C         1.28394831091267       0.44162991764095      -1.23504013759465
C         2.58117588294103      -1.79127359450839       0.27096045330013
H        -0.49109285067132      -1.62768904018370       0.72447292698159
H        -0.09795984851386      -1.69109564933665      -1.01136525576249
H         0.69718177418835       1.95603781209584       0.71709029585711
H        -0.00566180229834       0.76816669330307       1.84283968327761
H        -2.47860944523173      -0.63630991256316      -0.00301905465450
H        -1.78118750133949      -0.09585523850818      -1.53361223717794
H        -1.28979509340723       1.97042153785783      -0.62151769690252
H        -2.03838884247172       1.47785490606588       0.90055172364285
H         2.52255095698699       0.17200678548439       1.15120376841186
H         1.35158405678011      -0.97517327085111       1.84420175417488
H         1.67705059966347      -0.39325730951337      -1.80945651921299
H         0.48141999337288       0.92219656571005      -1.78926262739172
H         2.07585811313654       1.15691454603367      -1.02798557009687
H         3.29157079566034      -2.17311360751007       1.00367899033831
H         1.91148653586559      -2.60002902686943      -0.02039266311924
H         3.14739221577423      -1.45334205841278      -0.59441822693402
P         4.40801987948098       2.07965457560912       0.45134558359178
F         4.36516940350993       1.15658065056386       1.82398611150274
F         5.99967342815178       1.82474260005220       0.28127180630088
F         4.08121896967799       0.68070457331359      -0.43315243716219
F         4.33433051653098       2.93851353961389      -0.93772536017708
F         2.72197213146734       2.28450708161841       0.61614680804247
F         4.64254655031695       3.42501003785553       1.32964306220127
