37
C11H24ClN optimized with ForceField in AMS.
N        -1.38930119234481       0.19632554319146      -0.06008849989234
C        -1.67888802354638      -0.99318664480439      -0.91949749204957
C        -2.48279083608841       0.21194379657824       0.95950808697020
C        -0.06996872544498       0.02829352349764       0.63156795003050
C        -3.05091225330011      -1.52568450573611      -0.54998020999731
C        -3.21776626616189      -1.11216293569105       0.88480750920072
C        -1.44120110432132       1.43879490835460      -0.89601884582648
C         1.15738471142566       0.01489338758836      -0.31207754096729
C        -1.15740127253371       2.74174208443082      -0.12732935561705
C         2.42673690207810      -0.37568347523023       0.45605901106208
C         3.65440339903289      -0.38048054238894      -0.46222922708343
C         4.90991708559893      -0.79438172559213       0.30038415075497
H        -1.64338334565115      -0.76646159593093      -2.01008546343362
H        -0.95550641581445      -1.82368425502756      -0.74851568462573
H        -2.11460582114972       0.38311358004632       1.99747441218962
H        -3.23518131245725       1.00923099793469       0.75738077006181
H         0.08107456278982       0.83389326904017       1.38419759744137
H        -0.07898696468633      -0.92272488811088       1.21329252578278
H        -3.82873226301992      -1.03598367060461      -1.17702835929574
H        -3.11557139161162      -2.62958015383048      -0.66778371740882
H        -2.72803268890487      -1.85576582562605       1.55211080685964
H        -4.29033766676113      -1.01041452282969       1.16016878757635
H        -2.44662384728449       1.53428940971026      -1.36675155207820
H        -0.72403350936136       1.37390889556314      -1.74342675532064
H         1.31012882495874       1.02350337612577      -0.74908427375180
H         1.00654369408892      -0.70332707272980      -1.14462591772814
H        -1.81830352096685       2.85028892212202       0.75620484559388
H        -0.09888876409575       2.79489741372820       0.19725208623680
H        -1.34169492946325       3.60599225293841      -0.79962608661397
H         2.29367232213752      -1.38983299058432       0.89288946916083
H         2.59146668962190       0.34686555535485       1.28534239128993
H         3.49285643688858      -1.09218137104627      -1.30079496586626
H         3.81037815261241       0.63477632267028      -0.88744815298782
H         5.77352952643863      -0.82933683440467      -0.39614710729038
H         5.13202449535424      -0.06203588639787       1.10572047220297
H         4.77661998877566      -1.80247810325630       0.74757968482443
Cl        8.69023984986774       0.16723166564705       0.14366716759571
