30
C8H13F3N2O3S optimized with ForceField in AMS.
N         1.11402646058541       0.36676244444378      -0.37264520974380
N        -1.10960094847224       0.37417895976998      -0.37051680150988
C        -0.00022988594149      -0.23533272409739      -0.83190024664858
C         2.49538641977706      -0.02470814216545      -0.64146264940007
C        -2.49415533544858      -0.00992128887647      -0.63340290453459
C         0.69640848053451       1.39187418985827       0.39785792299703
C        -0.68368341837201       1.39678876724482       0.39864627268770
C         3.09671910104692      -0.71370116089822       0.57699997632479
C        -3.09554041262754      -0.69255851009615       0.58949196898861
H        -0.00364661876196      -1.11197931131065      -1.46796894784992
H         2.53144679870297      -0.72449490666849      -1.50467916691949
H         3.09495555056409       0.87435578775732      -0.90138653714268
H        -3.08938462219318       0.89166044103259      -0.89444907259389
H        -2.53697200871902      -0.71159233489234      -1.49503100995537
H         1.34462228277665       2.08349490011652       0.92014848386479
H        -1.32657113101174       2.09320685349296       0.92113239473539
H         3.10485328369854      -0.01973648962420       1.44137627409747
H         4.14021290598103      -1.02233608932996       0.35664425639256
H         2.50158355213358      -1.61499623518845       0.83685850513653
H        -2.50844343469491      -1.60091353507573       0.84338732480909
H        -4.14276882118949      -0.99170913597425       0.37281367011968
H        -3.09160586453465      -0.00115562541038       1.45847003214580
S         0.90091902809390      -1.02214994565773       4.48254369543497
O         1.22685403957954      -2.14139455452203       3.48293366132846
O         0.19052650269143      -1.76959929807306       5.62070631752745
O        -0.24478979165800      -0.26385846842049       3.79630626619380
C         2.31170796193728      -0.00211941903088       4.99590323251131
F         2.84450973580039       0.63891915848320       3.89516017107116
F         3.27649950738868      -0.80653173128850       5.57172990143994
F         1.88941949213286       0.93996657580136       5.91400500669173
