21
C5H9BF4N2 optimized with ForceField in AMS.
N         1.11061687976306       0.01391397312926      -0.00158742259278
N        -1.11132421393362       0.00816853373854       0.00064188070796
C         0.00156040444521      -0.75090672677443      -0.00042656499493
C         0.68679068464671       1.29280687548763      -0.00111884225823
C        -0.69376270287464       1.28941002751527       0.00007425036923
C         2.49477123256561      -0.44160782710129      -0.00327559956432
C        -2.49276212703856      -0.45622151229719       0.00186818800899
H         0.00382118931130      -1.83361654392185      -0.00031374090307
H         1.33247126416808       2.16161234636891      -0.00192462054749
H        -1.34302508108763       2.15555126560719       0.00048124595021
H         2.53903613868429      -1.54942939374116      -0.00854346469985
H         3.01319586159055      -0.06041419801142      -0.90760972576761
H         3.01287830428804      -0.06761644697460       0.90433574723152
H        -3.01337095000778      -0.07769130537630       0.90636772549373
H        -3.01343700068790      -0.08196005986959      -0.90435110153174
H        -2.52985626654092      -1.56648049464948       0.00453073214044
B         1.09085667967651      -4.98314392470966      -0.23950674226198
F         0.72839868786898      -4.68393194750965      -1.57993282084726
F         2.04363276738307      -4.03605396199641       0.21676630472655
F         1.65663313024122      -6.28433755263945      -0.17999907871575
F        -0.06301120066159      -4.92869534427432       0.58679781135636
