32
C8H15F6N2P optimized with DFTB in AMS.
H         1.44021317708580       0.10533294350691      -4.46669115498114
H        -0.23532184593429      -0.47034547496786      -4.27434322700480
H         1.07789383732175      -1.64337313786918      -4.56762634947515
C         0.81270231569029      -0.70339839327453      -4.08849530579647
H         2.27654452754322      -1.97044441893316       0.11568589791446
H         2.07685311180798      -2.69137241587992      -2.55258591614903
H         0.23237915393155       1.05619529837801      -1.98223568226381
N         1.03455942766878      -0.82046688591657      -2.65656885382557
C         0.72823724609343       0.12480126536201      -1.77065158670830
N         1.19255866664361      -0.26043677915190      -0.58732464728777
C         1.81293109754466      -1.47174278461138      -0.71718249357231
C         1.71724194629268      -1.82447067419714      -2.02654935753098
C         1.13494658456215       0.54043754167307       0.63043854210130
H         2.07744377036645       0.39981835633802       1.16472145648551
H         1.05078785712654       1.58669550652377       0.32877897836146
C        -0.05769996358042       0.11425812812946       1.48737650090068
H         0.04386540317027      -0.94265896452716       1.75509136262729
H        -0.97698432886859       0.22641690787155       0.90361789517128
C        -0.13721094284349       0.97095839554114       2.75490008633493
H         0.78923031764763       0.85767181333682       3.32722557472226
H        -0.23081796919913       2.02441620888914       2.47324633577800
C        -1.32672847233082       0.56666479038559       3.62295765097983
H        -1.24106282018192      -0.47692759353269       3.92881770907972
H        -2.26100792640856       0.69283844167183       3.07446592658783
H        -1.36152522884033       1.18928618712613       4.51665279745577
P         2.70133247709854       2.86247948739735      -2.16793856049734
F         3.30571911972601       3.82228385100588      -1.00033279526400
F         2.22992974691438       4.14127151295957      -3.05489755365718
F         4.13290668907363       2.78400455994558      -2.93625640908114
F         2.02825394447604       1.82849756236999      -3.32036476252481
F         3.10361765172710       1.51100644823387      -1.26965749640133
F         1.20471650847504       2.86275582561580      -1.38755991127921
