42
C10H12F18NP optimized with ForceField in AMS.
N        -0.01782318369652      -0.00452571857377       0.01445850913142
C        -0.91354192533786      -1.13126188233998       0.35528821464420
C         0.63330004751719       0.49763414541640       1.24428950381029
C        -0.80627351833516       1.08304562574749      -0.60540672805726
C         1.01578338732352      -0.46620468281757      -0.93726218093875
H        -0.34480571287153      -1.96520051384209       0.82479479066862
H        -1.70393057212213      -0.81024443004499       1.07064021804821
H        -1.41764554902547      -1.52970547272560      -0.55390918458792
H         1.29995274396927       1.35958646549909       1.01907791620018
H        -0.12357496852412       0.83823148374451       1.98610019068380
H         1.24963948904233      -0.29641792280111       1.72318913346614
H        -0.15475042715626       1.94482892303780      -0.87495657236560
H        -1.30913171429340       0.73184722341894      -1.53453003896313
H        -1.59193049297468       1.45342655699179       0.09080316316339
H         1.69010890750872       0.37030891407850      -1.22421485898894
H         1.63918884954126      -1.27373387643239      -0.49119086945078
H         0.55301351204899      -0.86518036066427      -1.86787177170826
P         6.59265293218358       1.15282883129207      -1.46502253347579
F         8.02689138951825       1.65161340944759      -0.65419598089165
F         5.36945112877722       2.36619119505573      -1.41605465268735
F         7.72724170674110      -0.06156259315872      -1.91102814222553
C         7.26529274253987       2.48369781586053      -2.70465425989472
C         6.26452625963611       0.88213847542719       0.42423898757422
C         5.45616280499364      -0.17275976324758      -2.29299493857479
C         8.68622827760781       2.26804954600092      -3.29183968831369
C         4.83897555928533       0.46011969236509       0.83914619912648
C         5.51282086895194      -0.29272058040666      -3.82964006791463
F         7.29399516380308       3.71955559926067      -2.06966255931139
F         6.39393319569945       2.60293854450509      -3.76900320444534
F         6.52255505766314       2.06135360528705       1.11774480076577
F         7.13121636702405      -0.09510629765239       0.89262344357404
F         4.14120895430660       0.12554399868491      -1.98996742807561
F         5.72713134918257      -1.42471772305913      -1.75728295152448
F         8.91110224622543       3.22504057471707      -4.26594913684569
F         8.83182921213313       1.03049288431499      -3.88094643271641
F         9.66300585019339       2.42215661317390      -2.32440616206307
F         4.75656691582053       0.47714522614746       2.22087289615283
F         3.88981718141815       1.33761130969526       0.35083751371484
F         4.54727974347499      -0.82451719407857       0.42613636703463
F         4.86596722258330       0.77201095991305      -4.42842823631449
F         4.85084021257059      -1.44637884341221      -4.21252865379627
F         6.80470111235259      -0.37563813582609      -4.29877800352753
