61
C17H24F18NP optimized with ForceField in AMS.
N        -1.37340531290241       0.17281573086154      -0.06485873842820
C        -1.64320924483225      -1.02198424080398      -0.92339736381199
C        -2.47977183241894       0.18223991153348       0.94080392495453
C        -0.06029631045449       0.01817263359550       0.64291411186597
C        -3.01577521273675      -1.56233019661358      -0.56911629411933
C        -3.19842981223444      -1.15012437906228       0.86411246574909
C        -1.42673285660035       1.41317180164830      -0.90462509800230
C         1.17600602128913       0.02230155297564      -0.28887646862636
C        -1.15140736759977       2.71776905598718      -0.13509564731446
C         2.44376967826247      -0.36652829882846       0.48264766175634
C         3.67671539408688      -0.32976275915035      -0.42811587560759
C         4.93827333072850      -0.72504734386534       0.33375137059919
H        -1.59590582709684      -0.80073064930679      -2.01432997130333
H        -0.91623409557893      -1.84646015861732      -0.73948507400657
H        -2.12845029900125       0.36418531215478       1.98220418331579
H        -3.23872702989186       0.96927414179884       0.72349409248357
H         0.07366201561054       0.82503205736404       1.39740686234137
H        -0.06367163817014      -0.93303636827545       1.22469152072826
H        -3.78924268771999      -1.07474425127732      -1.20339687243830
H        -3.07387545626409      -2.66624667521466      -0.68792746295100
H        -2.70272519890953      -1.88611745352958       1.53548630314146
H        -4.27376743228722      -1.06103481443063       1.13151065498647
H        -2.42991733319448       1.50430276980350      -1.38138929171812
H        -0.70502298624185       1.35110921233908      -1.74849451437601
H         1.32417704319768       1.03742925853913      -0.71297151705017
H         1.03654555485433      -0.68747384142643      -1.13069160263026
H        -1.78985737543203       2.80484340888749       0.76726195109160
H        -0.08601085694446       2.78889204850238       0.16353861171760
H        -1.37057688139252       3.58238864834965      -0.79609503652833
H         2.32370204237233      -1.39247430816369       0.89597042794250
H         2.59073483669147       0.34072947580252       1.32871733140557
H         3.53615790076635      -1.03255984991624      -1.27831817415276
H         3.81017713185827       0.69547398091608      -0.83728327120808
H         5.81336058017173      -0.68012846535829      -0.34812556007874
H         5.11216593908165      -0.02896817146219       1.18204383807337
H         4.84415553591348      -1.76104280490666       0.72145446954522
P         6.27260788257309      -4.38264102799301       3.35345727576421
F         7.09264926846384      -2.99287069078683       2.75372819973987
F         7.35044507391657      -5.48080652085911       4.13074019989658
F         4.98412644784419      -3.32510805109721       2.92964183595356
C         6.68779725324102      -3.46501068017232       5.01046009887285
C         7.09292361184801      -4.90499002245745       1.68001368112450
C         4.74396408636637      -5.55992076999508       3.45828442743873
C         6.12172664107807      -2.03186537764186       5.19748599563769
C         6.98857934373362      -6.39187329056964       1.27933711728199
C         3.80347953216870      -5.38313182549035       4.66533455087848
F         8.06799209459895      -3.35686779971478       5.13115420668939
F         6.25295817052920      -4.22024746563641       6.08137255911721
F         8.45528153869410      -4.62109282900717       1.71968959299725
F         6.52369171946208      -4.16673744409121       0.65146329297112
F         5.19340845596233      -6.86645140075091       3.52402873359738
F         3.98095490385528      -5.44298582434017       2.30409896022158
F         6.42215764166035      -1.60218426801207       6.47798715939155
F         4.75186483624372      -1.98661349547207       5.05284272990224
F         6.69572006976850      -1.13693205907438       4.31234285742763
F         7.77333942655095      -6.60519926051163       0.15952191129181
F         7.45347562426850      -7.22264313509792       2.28156004920870
F         5.69439676133726      -6.73741831922929       0.94480571482828
F         4.40500157780443      -5.83271325633244       5.82493613059105
F         2.66953607991269      -6.14986741364243       4.46305464652529
F         3.40254256113794      -4.07530522227416       4.82260010760502
