47
C13H28BF4N optimized with DFTB in AMS.
N        -1.46756373808016       0.20892412475230      -0.18651542030083
C        -2.41752815105544       0.70223609799880      -1.24435004458845
C        -1.81619582483579      -1.20446908082103       0.16701296621323
C        -0.09473437603457       0.22717034081841      -0.80893206276613
C        -1.51917593726689       1.07087822866946       1.04730235102737
C        -3.87923351783111       0.56705780497314      -0.84830079151583
C        -3.27049146713219      -1.37945061321555       0.59208235739908
C        -4.22047253935568      -0.87921172680215      -0.49504818092926
C         1.04937241192705      -0.22147207626700       0.09253112290056
C        -1.03378106286455       2.49992558302232       0.85591502987126
C         2.36710353086139       0.06235700594242      -0.64196862095164
C         3.57453226306027      -0.30762032307586       0.22288261060299
C         4.88712586009932      -0.01680374471157      -0.51173011605169
C         6.09818083880389      -0.37572940011665       0.34747140923233
H        -2.21432551010012       0.11747877019323      -2.14430089075611
H        -2.16534584698815       1.74185574741276      -1.45602826036448
H        -1.14750929833736      -1.52369273884992       0.96912904436534
H        -1.61597936712311      -1.81014707957359      -0.72135310576949
H         0.08167378093268       1.24910844018803      -1.14325767029356
H        -0.14516188919205      -0.40829860901775      -1.69580059053453
H        -2.55583953663444       1.08193073589200       1.38868173550314
H        -0.92008692882743       0.56722548067563       1.81035583853892
H        -4.47663649412543       0.89096307673961      -1.70413087640208
H        -4.12027782952365       1.22629107064144      -0.00991608823271
H        -3.46198512423060      -0.85428253150879       1.53181541359043
H        -3.43321934449206      -2.44600994455022       0.76980572264834
H        -5.25224013862220      -0.94670612449630      -0.14212076737692
H        -4.12175479315631      -1.50912330087362      -1.38497232952450
H         1.04559240941203       0.33168802299260       1.03529066738495
H         0.97768660415477      -1.28894650056422       0.32451219014084
H         0.01544125294524       2.54252648001087       0.57338273004486
H        -1.61229895416759       3.02732210110585       0.10087631218872
H        -1.15704308305731       3.01402716349049       1.80936316109367
H         2.40778988346963       1.12544552636461      -0.89970478669205
H         2.39261721150314      -0.50947157467969      -1.57511967914628
H         3.52735809290383      -1.37130930601771       0.48300482350858
H         3.54350786953405       0.26539854449144       1.15627537669996
H         4.91765144640928      -0.59238666215720      -1.44291583513704
H         4.92822881635777       1.04539660024588      -0.77359835744368
H         6.08519997256991      -1.43615437657156       0.60425493061960
H         7.01849369552092      -0.16145890470620      -0.19621516435426
H         6.09740997933807       0.20468831652326       1.27126965824119
B        -0.37472867977588       3.10369173715978      -2.64089113132926
F        -0.02111060931257       3.94667612637875      -3.65044174962939
F        -0.61209481044905       1.78353750196927      -3.11475859137329
F        -1.56463112830985       3.52333992960386      -1.99092346012452
F         0.63719372257830       3.01282693922036      -1.64932887652743
