37
C11H20F3NO2 optimized with ADF in AMS.
N        -0.01593201867256       0.26998299769420       0.05278530884990
C        -0.84514396241655       1.36687036041621      -0.61316604117790
C        -0.49866125055640      -1.09542477955102      -0.42126510108819
C         1.42080746918927       0.47949729855572      -0.41236584623722
C        -2.34402608598199       1.17014051953124      -0.45808976557640
C        -1.99048177096824      -1.29789967243587      -0.21309805231372
C        -2.78677830989414      -0.21274175033097      -0.93500963383704
C        -0.11463327942823       0.38959654832590       1.53596966779124
C         2.44713755095494      -0.48720545387907       0.15294697222313
C         3.81914185794423      -0.17388065217484      -0.45016734015326
H        -0.54075215586609       1.35036062984512      -1.67249437429234
H        -0.50395539967133       2.31436941807098      -0.16640469717883
H         0.09334410278649      -1.84132477391761       0.12634094984525
H        -0.27526585314050      -1.14669256769120      -1.50636026629182
H         1.67063249592914       1.51741699542174      -0.13303713529950
H         1.36592221503362       0.41939721367764      -1.51798639195874
H        -2.82221670624689       1.95526531898281      -1.06691436363366
H        -2.66352928001965       1.34321151933864       0.58577588752638
H        -2.25227578457718      -1.34293997561595       0.86020584159772
H        -2.22647919857140      -2.28764235888336      -0.63781221202498
H        -3.86716594189125      -0.34562037461354      -0.76632235633368
H        -2.59857486253278      -0.31054990444072      -2.01747781695463
H         0.42002918042982      -0.44474970759219       2.00450733900944
H         0.33617202564882       1.34414059857615       1.83881651615435
H        -1.16740191426085       0.36588785308068       1.83437438648670
H         2.51001055862946      -0.41739301515158       1.25253552541629
H         2.17956861062033      -1.52495457621934      -0.10305716064907
H         3.79644374442429      -0.28125088573850      -1.54510278351494
H         4.13418664347856       0.85501101978537      -0.21525643571504
H         4.58069210489519      -0.85947187942719      -0.05149363802430
C        -0.44540033572505       0.08002894694135      -3.76056223474675
O        -0.83914614504408      -1.07322226854597      -3.47648693041036
O         0.54312413006423       0.73836148385875      -3.33876426219873
C        -1.40314560085639       0.90363139397421      -4.68676185489229
F        -2.26957809150815       1.63338328129658      -3.87733368653406
F        -2.18622434024294       0.13983032479999      -5.49562422454775
F        -0.76392699205573       1.80749442543562      -5.47850281651523
