35
C9H20BF4N optimized with DFTB in AMS.
N         0.06387933380347      -0.09145358833308       0.18564742323097
C        -0.24509674783289      -0.99927653240424      -0.96673686382194
C        -1.26664933284434       0.10915372671518       0.84106916179815
C        -1.59925633059640      -0.53290496613299      -1.48947914064330
C        -2.28328010609229       0.15886181790021      -0.29946448966408
C         1.02510263118061      -0.74058228118235       1.14324718697053
C         0.56911744875928       1.22527591199976      -0.35341209637806
C         2.26792012339321      -1.33168154279659       0.46742242127492
C         1.13667595119945       2.16904078070347       0.69373326957144
C         3.53422668815443      -1.05647913487202       1.27312558847918
H        -0.30221754297506      -2.01907419021263      -0.57925946115073
H         0.55099272162035      -0.92796076483445      -1.70987465767834
H        -1.24596413684485       1.01653286668019       1.44449820001684
H        -1.45756843887477      -0.74764869739850       1.49113201746065
H        -2.18007293059946      -1.38471134175487      -1.84696321421693
H        -1.47256297423318       0.16406379856535      -2.32014601408144
H        -2.54414818531124       1.18992732910642      -0.54586822046889
H        -3.19762826029179      -0.35963617748212      -0.00501291060149
H         0.46708372020712      -1.52897498454316       1.65655789099555
H         1.29378630759334       0.01426575985604       1.88434884178846
H         1.34625745315066       0.99945719301964      -1.08446941472177
H        -0.27344275701520       1.68995296027473      -0.86911334530570
H         2.12950369717483      -2.41040991962319       0.34860177951234
H         2.40095295190607      -0.90565320027464      -0.52416553362737
H         0.50298969511280       2.25401846350198       1.57662263002402
H         2.13826488230393       1.85666381132154       0.98490172532099
H         1.21911054479995       3.15242840283402       0.23125967239190
H         3.72038633239001       0.01639767085185       1.32190782905391
H         3.45535632574626      -1.45477580946059       2.28612452434022
H         4.37741272515964      -1.52415739904221       0.76643346148374
B         3.55768595930628       0.34673533451530      -2.09322646630392
F         2.22357291342065      -0.06738656168681      -2.47420557491695
F         4.12585652123246       1.07315607780607      -3.10082654512402
F         4.27708225334922      -0.79063344397608      -1.75716439589520
F         3.38699582594741       1.14183378225870      -0.92180197851365
