58
C18H34F3NO2 optimized with ADF in AMS.
N         0.21644412393322       1.87130297424426       0.32790346584080
C        -0.35310238975631       2.92537716883097      -0.60516004885110
C         0.89443275312827       2.70001748684957       1.41918633615332
C        -0.87345680538649       1.01946380337083       0.93007827643752
C         1.24571662704019       1.02383979920868      -0.42838619282146
C         0.70503387163523       4.01469453599625      -0.64828814532529
C         1.27175997419865       4.04838766710579       0.78521780604874
C        -1.63327149666998       0.16111305129583      -0.06603936516318
C         1.82998420279703      -0.14335193145049       0.34660285506375
C        -2.75685634998816      -0.60626555716872       0.63535292705751
C         2.89371297632810      -0.83725634043886      -0.51667119460037
C        -3.55491120110366      -1.48089884874363      -0.32969394468789
C         3.76007795066273      -1.80775890782625       0.28571128613565
C        -4.67990443281113      -2.25449115528124       0.35547353409142
C         4.84963651046664      -2.44603809729847      -0.57652140776126
C        -5.47122079772338      -3.12526253619180      -0.61724838662132
C         5.78461204329863      -3.34798067421491       0.22605189317216
H        -0.58681802475956       2.46650241927888      -1.57374579218992
H        -1.28031566317026       3.28680759538558      -0.13208958662036
H         0.15589683801011       2.81572449823825       2.22454403536719
H         1.75543378918178       2.13576034334618       1.79213043989623
H        -0.39507109121510       0.39931851438587       1.70216590933038
H        -1.55740135870339       1.72131851248339       1.43332153585145
H         0.73707361241118       0.67877509242793      -1.34067689920883
H         2.05035520488703       1.71170643603570      -0.71732210244463
H         1.49661043431034       3.77057636119090      -1.37032625817732
H         0.26298010060573       4.97487186924611      -0.95017887338173
H         0.82322392247164       4.86577993661865       1.36859274433387
H         2.35951617168075       4.19253171299761       0.77763298569351
H        -2.06895738765714       0.78999529195662      -0.86109032892441
H        -0.95430038812134      -0.55865054034786      -0.55042528422265
H         2.31837278051058       0.21679463534317       1.26655556161318
H         1.05062000192375      -0.86826904049211       0.63972198735844
H        -2.32733764365607      -1.23870345859097       1.43388760996452
H        -3.43950476222891       0.10725150643698       1.13242560029878
H         3.57773532816153      -0.07702718317513      -0.93777789082551
H         2.40136108046235      -1.37037383095428      -1.35213356772079
H        -3.98162056117823      -0.84771820469696      -1.13022925959217
H        -2.87131375667309      -2.19330074186915      -0.82729918530226
H         4.25059381248427      -1.23725861017681       1.09598308299218
H         3.13897793678184      -2.59219915289695       0.76175932885928
H        -5.36009900735084      -1.54035359246156       0.85424253908293
H        -4.25029093944198      -2.88510625186010       1.15492133575661
H         4.37830449165017      -3.02696226908615      -1.39118242286127
H         5.43006630325563      -1.63121816702677      -1.04211172924256
H        -5.93762642784723      -2.51283390460488      -1.40538717831147
H        -6.27142832487155      -3.67739510516157      -0.10114317182421
H        -4.81631660516037      -3.86212142866749      -1.10868216830600
H         5.23551101969563      -4.17069804722023       0.71437581298147
H         6.55839778170954      -3.79354795300442      -0.41867300246033
H         6.29915137477712      -2.76985105990501       1.01048036370219
C         5.90104231256473       1.95715801603357      -0.50272452258768
O         5.51080507653879       0.83597398550639      -0.91129503107717
O         7.00293213440882       2.51282561479026      -0.39699905055970
C         4.67607818904578       2.83770760960889      -0.02140251581131
F         4.95565426773188       4.08052209615022       0.45904150041095
F         3.95000588126342       2.21044259898076       0.99530492996432
F         3.74932910406109       3.04533932096868      -1.04935999517417
