45
C11H20F6N2O4S2 optimized with DFTB in AMS.
C         3.04293862761165       0.38880099482571       1.69258579765217
C         2.42390443274243       1.11001159083650       0.50963265789122
H         1.50933144806362      -1.64400188473868      -0.30280007208999
H         0.54932872626660      -1.43085830519977       1.17652552961485
H         3.49090737947679      -1.54224156724202       0.84451093307765
H         2.56730357040309      -1.63517701010693       2.35827580827415
H         2.61942573999116       0.73705049639701       2.63824012300072
H         4.12178321399443       0.54823926419238       1.70526011489379
H         2.20771173775837       2.16359976664162       0.68642515922322
H         3.05834373583210       1.00611121741139      -0.37028704055906
H        -0.83632294914275       0.35386385358410       0.98352343763425
C         0.06869519579462       0.94733536313849       1.08623094140695
H         0.40102564474028       0.92435566260384       2.12206292384562
H        -0.12327964205774       1.97479640061401       0.78141644869700
C         0.81548264596725       0.55369149640127      -1.23553650595819
H         0.99685282474363       1.60887079335023      -1.45768535543289
H         1.54473646988693      -0.04535323399816      -1.78411735312393
H        -1.32773453310036       0.86138880344049      -1.17214660499299
H        -2.65684342931088      -2.55780841403701      -2.02663357214384
C        -1.01932445624397      -1.25802705174391      -1.50129287127609
H        -0.26731434682821      -1.90468107882255      -1.95999373643194
H        -1.08574145286652      -1.51058432555297      -0.43818050261157
C        -2.37447599899762      -1.51373364087995      -2.15906402473503
H        -2.32586888101861      -1.29993053093314      -3.22711448923363
N         1.13867817190004       0.37910068834187       0.22796431100043
C         1.40399578528522      -1.05926652858852       0.61047757333924
C         2.69580902149853      -1.07575605774657       1.43079449898280
H        -3.14565212840847      -0.88419341520060      -1.71216855240296
C        -0.60611420141980       0.20714364191076      -1.67168655340629
H        -0.63851039037856       0.45264737346413      -2.73855411950085
N         3.70684316287549      -1.00104893001751      -1.48882572649580
S         3.26366091788341      -2.02298286799074      -2.65140570651338
S         5.11754676209845      -0.24498751703937      -1.66639564662279
C         4.23108359364902      -3.60879078120658      -2.39017930404600
C         4.77348875441264       1.15671229976508      -2.86599104470422
O         1.90218363984099      -2.39645557905322      -2.31041894047480
O         3.52412952076949      -1.58924499387168      -3.99878477846354
O         6.18639614206409      -1.02589756915001      -2.22368139342209
O         5.33768041097827       0.45018489480417      -0.41701835810428
F         3.46837090394021      -4.63465738667963      -2.73141610122358
F         4.53219716611986      -3.71504591224404      -1.10182058719205
F         5.33318900683438      -3.63227771679088      -3.10384255892019
F         5.51690812993104       2.20448310163426      -2.54962745099247
F         3.48724424323018       1.50837959310018      -2.72041249583859
F         4.99044173428924       0.83324410687694      -4.11889037112100
