46
C14H26F3NO2 optimized with ADF in AMS.
N        -0.90072735726879      -0.06227497685935       0.31619775955492
C        -0.92503101427587       1.39706336470396       0.75841716729825
C        -1.80301427542348      -0.88912360501527       1.22897397220324
C         0.50956424925017      -0.61703464601140       0.50407946462062
C        -2.33419540947294       1.95389296119132       0.87740884371415
C        -3.21271962284564      -0.33453424491506       1.34303533432935
C        -3.17535986918439       1.11171364912403       1.83463059646587
C        -1.33016103441343      -0.20106689933884      -1.10347222607561
C         1.60602258539027       0.08380484054230      -0.27539694407689
C         2.93930294348830      -0.62652796278650      -0.01988311401776
C         4.11687100408879       0.09632422760730      -0.66774446564908
C         5.45394487260985      -0.59202689782363      -0.40085300579996
C         6.63079635890179       0.13866986397959      -1.04185660936912
H        -0.32208865932844       1.95430692609088       0.02924827582948
H        -0.42907633435717       1.38500582155904       1.74596512649622
H        -1.30766574932990      -0.85525882356734       2.21339082283489
H        -1.78218424824274      -1.91374583304596       0.82645066975295
H         0.68761337438138      -0.52902437313958       1.59123250686575
H         0.44346864716015      -1.68177909826766       0.22457358880996
H        -2.23136355110864       2.98463532460924       1.25539214090002
H        -2.82589484460136       2.03031716711521      -0.11004170347813
H        -3.76443040885063      -0.41176836470023       0.38857956242135
H        -3.74570745289743      -0.97734147347823       2.06345082460986
H        -2.70927661854094       1.13609509015858       2.83602260683626
H        -4.19443539853793       1.52020421647500       1.91975518805058
H        -0.69766608556439       0.43417282154050      -1.73378766453908
H        -1.21900607079230      -1.25230694726844      -1.40068242566512
H        -2.37555809345481       0.10539405392458      -1.20607860618148
H         1.40672263422017       0.09271800903348      -1.36139693119120
H         1.70327933513991       1.12670380770125       0.06504279065096
H         3.10639833278353      -0.68795491204727       1.06780167731132
H         2.88553855297897      -1.66437757767455      -0.39854725286487
H         4.15954582093432       1.13092273838544      -0.27930665957650
H         3.95559602894076       0.17413077970423      -1.76003863121284
H         5.41022439606149      -1.63059003355462      -0.77699239260322
H         5.60795259305605      -0.66172201594701       0.69083796517095
H         6.50675650993633       0.20347981679791      -2.13513600451463
H         6.71360997033614       1.16597109912600      -0.65210177891800
H         7.58265990219697      -0.37601262536390      -0.83964397491804
C         0.69290377400334       0.75709205027273       4.26960192271809
O         0.44871189147213       1.16409256709942       5.40716980208713
O        -0.05946867227955       0.26018061031689       3.37001273165546
C         2.18745327163110       0.86199378891061       3.78700125891473
F         2.70335186194748      -0.37105991650991       3.43862087353953
F         3.03769468015936       1.39449912540223       4.69585601973186
F         2.29115301270201       1.64669239704300       2.64417397447776
