23
C7H10BF4N optimized with ADF in AMS.
N         0.43815563240041       0.19813232253194      -0.45862741847789
C         1.86161467328430      -0.06797331512255      -0.80861177589836
C        -0.05278188321415       1.44777305648339      -0.56228564400049
C        -0.30205654397443      -0.80494865310373       0.07215836494516
C         2.68737757749854      -0.26649767117769       0.45248499334437
C        -1.34539750289397       1.72885643721262      -0.14078966867581
C        -1.58690302858282      -0.57218620821194       0.50794398468094
C        -2.11977799742471       0.71745392232011       0.40220923111043
H         1.86369631753966      -0.94701124337356      -1.47244803743760
H         2.21389779699762       0.81525623588368      -1.35658492826588
H         0.61548226770021       2.21018668161660      -0.95910025140400
H         0.18265317944657      -1.77761671748394       0.13106113788420
H         2.58648026545979       0.62305346834980       1.08986053163913
H         3.74335170223381      -0.38768186454556       0.17143230316389
H         2.37083590710162      -1.16056685224160       1.01065218325588
H        -1.68795392572630       2.76125266066795      -0.21172069735759
H        -2.16239052170600      -1.39406614433332       0.93427159347573
H        -3.13074304625684       0.92275928084504       0.75826358881881
B         1.75004679395921       3.43365081553877       0.80514170013999
F         2.54600168994262       2.84686524754299      -0.25026325511383
F         1.17184175321217       2.33790572546603       1.55292014324855
F         0.68055754362165       4.15259774353546       0.19095665673287
F         2.52905230328105       4.23559258319951       1.62924274899148
