25
C5H12F3NO3S optimized with DFTB in AMS.
N         0.25976957372524       0.00481710477879       0.00709478692613
C        -0.84608044486350      -0.96834163105047       0.19043799583202
C         0.94373190340918       0.22122441329189       1.31409272343236
C        -0.27943554213654       1.30361707702644      -0.47701177003646
C         1.21866414462975      -0.52874138188173      -1.00236778372479
H        -0.42952667729566      -1.90628358556904       0.55298399324537
H        -1.55477635251575      -0.57208122850314       0.91554688187852
H        -1.34415513893646      -1.12787436554845      -0.76426450036856
H         1.63379205854018       1.05384481088615       1.20939761609650
H         0.19341141428296       0.44588902858748       2.06976525543544
H         1.49777929348252      -0.67636443911817       1.57838610879039
H         0.55866502911409       1.98769728675453      -0.60985989117921
H        -0.79026717106028       1.14535536890072      -1.42502081742041
H        -0.97389772095944       1.69775818074866       0.26265437222140
H         1.95102018900650       0.24282475612254      -1.22415550646270
H         1.72183678868082      -1.39903275004099      -0.58778534914996
H         0.66706877567999      -0.79687671187490      -1.90174753038565
S         3.93214317188282       1.43225343114567      -0.02736215009089
O         5.06808368360173       1.63237090884414      -0.88269300941578
O         3.68906952069628       0.05716134086118       0.39712873110647
O         2.70193990329686       2.11042729906655      -0.45247077900507
C         4.31634789493886       2.29309086858976       1.56707530435887
F         4.53278223371916       3.58870742430424       1.39401591058902
F         5.36443308429850       1.76555739715467       2.18135049705353
F         3.25326651788219       2.15923018562350       2.37848242047348
