58
C16H34F6NP optimized with DFTB in AMS.
N         0.79533790101759       1.46538756302719       0.11941012584927
C         0.30276956699479       2.57249810935881      -0.78289581656247
C         1.70241162541284       2.12850848215015       1.14103933240462
C        -0.34919630195159       0.81421070918277       0.83044350449183
C         1.57501085908553       0.47680291542722      -0.70792246549179
C         1.24491668577909       3.74362808391197      -0.54831094106456
C         1.56028898020174       3.62845576634927       0.93753646410182
C        -1.34486437231227       0.11539396330465      -0.09442459666081
C         2.12911800415079      -0.70559081919251       0.08227222044826
C        -2.55318559742049      -0.36286349438389       0.71968153343637
C         3.18220331681184      -1.42421949165996      -0.77235024567845
C        -3.56030927950812      -1.09533477161186      -0.17191672084167
C         3.86453757198816      -2.53955722246104       0.02270323414878
C        -4.77075358390448      -1.57294664154671       0.63673094373107
C         4.94925155384520      -3.22221127842540      -0.81583000489673
C        -5.77512787403278      -2.30792634695431      -0.24888835770724
C         5.64918517514285      -4.32720489705148      -0.02681673848486
H         0.29023696497662       2.22277935833223      -1.81468697555130
H        -0.71396735517643       2.83298743566378      -0.47985965415806
H         1.42011474762130       1.80139876769027       2.14122308927990
H         2.72476729083746       1.81968689382621       0.93531571949756
H         0.07161293253454       0.09331173213748       1.53483352270750
H        -0.85305507220368       1.59996922933806       1.40016509765971
H         0.91764274763635       0.12555030655650      -1.50641621341225
H         2.39440658603982       1.04168707647892      -1.15508903188766
H         2.15461942475777       3.62837972290991      -1.13970434015792
H         0.76442333830295       4.68790940609684      -0.80534626241244
H         0.74438842362858       4.03516928821409       1.54147965260495
H         2.49123835238883       4.13224165209933       1.19936406420720
H        -1.68257416291318       0.79774665631294      -0.87894182977925
H        -0.87410013533477      -0.74617950874245      -0.57435967765719
H         2.60053251693446      -0.35777710974659       1.00343170594816
H         1.32749954349431      -1.40192998266622       0.34794026570062
H        -2.21163086797073      -1.03311624981112       1.51540262009915
H        -3.03794941208666       0.49819983670983       1.19192977079500
H         3.93564652829251      -0.69833358160099      -1.09080823137409
H         2.70689593567050      -1.83777128341277      -1.66837102175862
H        -3.89434118037411      -0.42396266805123      -0.97030265164950
H        -3.07095421528299      -1.95519958218987      -0.64164409587664
H         4.31715916766737      -2.11210161595405       0.92327347756167
H         3.11934568072016      -3.27875058276246       0.33904545861931
H        -5.25842785019125      -0.71085865873646       1.10407931905511
H        -4.43262721527332      -2.24023811245913       1.43653286604016
H         4.49949017848029      -3.64720393713718      -1.71991952966345
H         5.68615026516400      -2.47519281612326      -1.12757447001368
H        -6.13811872979740      -1.65197764314228      -1.04118452762964
H        -6.62623432112584      -2.63713762807174       0.34706848177703
H        -5.31218559966932      -3.18273993610424      -0.70720162920420
H         4.93360805756329      -5.09132098342392       0.28147624978487
H         6.41611309166872      -4.79773387849731      -0.64243330313250
H         6.12377728270851      -3.91633736901030       0.86515883602694
P         5.28969624195677       2.18125096822374      -0.13508057331717
F         4.57202557934640       3.22543797473688       0.94586925238254
F         4.51180434719612       0.91649156681455       0.65384526757831
F         3.91079914364579       2.34681551773858      -1.10701245098255
F         5.88979231176611       1.10819067611599      -1.21229049386320
F         5.97385666366305       3.43066850499197      -0.91748435047117
F         6.57262922913656       2.00758877403057       0.84264852780336
