42
C10H18F6N2O4S2 optimized with DFTB in AMS.
N         1.36157673524608       0.22708055692234       0.39657464924704
C         0.76435480225016      -0.15863365906917      -0.92149030067792
C         1.73985172325015       1.66463803894622       0.19120851456390
C         1.60253830800885       0.56611125487383      -1.97560356500773
C         2.27056169909268       1.73550069662206      -1.23546682138213
C         2.60514868977414      -0.58050833403112       0.66263897905666
C         0.34062284328271       0.09231620966007       1.48724907908184
C         2.35878431891488      -2.02615020946193       1.05723195537747
C         0.83870878223404       0.53210000807061       2.85477473960720
H        -0.26973943613679       0.19301040246121      -0.93515689515809
H         0.77469265795986      -1.24310827636163      -1.02684163557207
H         2.46959601117639       1.96831985340452       0.93975699112552
H         0.83319864728157       2.26356516278289       0.30332077030253
H         0.95960055374444       0.91581544280438      -2.78504389982345
H         2.35168827559631      -0.10273002262198      -2.40308073839075
H         3.35697325278254       1.63376440162331      -1.24798465643372
H         2.01523925573536       2.69670727766201      -1.68371175149840
H         3.20786968570547      -0.53516839060710      -0.24562171222681
H         3.14751477557242      -0.06645092757521       1.45762800993434
H        -0.51492153954833       0.70393478360076       1.18647565227663
H         0.02488599970385      -0.95332969786871       1.50718549951418
H         3.33053672153708      -2.51843808611221       1.08644967809000
H         1.92270823066645      -2.09915816503651       2.05140424762721
H         1.72512928626878      -2.55130069316720       0.34314118429995
H        -0.00508085593923       0.49569522343216       3.54328621571430
H         1.61783115446319      -0.12662673636573       3.23011899241850
H         1.22534477188739       1.54874013982110       2.83128379779990
N         3.88371115043033       1.32138615928303       2.83658462960870
S         4.65727838849828       0.08866933774952       3.53396314485821
S         4.76832144418754       2.57446366085305       2.35836596311305
C         5.11142988268898       0.59967637486879       5.28107636551350
C         5.77384949658927       2.00899611239751       0.87351113584195
O         3.64548785736795      -0.93524808546046       3.70965086029267
O         5.88908825974871      -0.29064145611064       2.88797075995150
O         5.71537327256328       3.07234760180439       3.31751752290121
O         3.82575932639096       3.49461973366040       1.76146115140224
F         5.02052306532619      -0.45956389266009       6.06844412613880
F         4.26148583218037       1.52072206027133       5.70587604181811
F         6.33768378463657       1.07108381114749       5.33102285756465
F         5.85125028132994       3.00382103052158       0.00128060766312
F         5.11410750277868       1.00426111674059       0.27315128140614
F         6.98463676557258       1.60785882512455       1.17738551716007
