76
C22H34F18NP optimized with DFTB in AMS.
N         0.12923467422697       3.38455088266843      -0.46092580039280
C        -0.30931235326681       3.74873291851848      -1.84525671069636
C         1.08175444750716       4.48773479933397      -0.10557390971806
C        -1.03423693011525       3.42277890100621       0.49232036037187
C         0.81489826368693       2.04940165399677      -0.46482149265353
C        -0.43443158953402       5.27149317153200      -1.84277779215136
C         0.46886658128733       5.75220273707334      -0.69607782519789
C        -2.05506013740893       2.30230692130779       0.32068864364408
C         1.35993445783431       1.64218148409507       0.90158116441579
C        -3.26724504656318       2.60405012654036       1.21225114704622
C         2.01216951380066       0.25844619073142       0.83122084545871
C        -4.27610917257926       1.45337486871282       1.18029381811042
C         2.54070806742651      -0.13685527311922       2.21436652121692
C        -5.46867099081638       1.74650977828229       2.09616439378700
C         3.18324909293933      -1.52636885414958       2.19273791000011
C        -6.47973108201976       0.60174579108458       2.07698482359095
C         3.69787161972761      -1.91491367001584       3.57768000477269
H         0.47088616994408       3.42160267544781      -2.53647652270181
H        -1.23885142938535       3.23465225447515      -2.08708223158336
H         1.19728482721691       4.54043386975144       0.97369812663612
H         2.04395900694073       4.25828714514616      -0.56828521602618
H        -0.61860529136641       3.38342909775981       1.49693263672322
H        -1.51708622391276       4.39262740606854       0.36233866052578
H         0.09178251683207       1.31669376318903      -0.83124569625011
H         1.63181922858890       2.11721952998615      -1.18910807014934
H        -0.11331033108270       5.67336357837392      -2.80519911008245
H        -1.46971377960733       5.57566285733658      -1.67734876428307
H        -0.10959859158757       6.28606042345486       0.06016379314937
H         1.25485759976834       6.41800376991428      -1.05519649387400
H        -2.38005464961304       2.21536055630793      -0.72069006696173
H        -1.61989058876539       1.34580382873293       0.62199032714556
H         2.09893076668066       2.37212038663213       1.23777440967517
H         0.55617790480976       1.61348508098131       1.63857152008694
H        -2.92669691757613       2.76169827430876       2.23888695914847
H        -3.74674877898330       3.52787282225236       0.87218028316818
H         2.83392819817769       0.27146417935678       0.10678341729915
H         1.27544470006526      -0.47781777359203       0.49108580692053
H        -4.62757484674192       1.30028711544043       0.15354930868888
H        -3.78392811581656       0.53067011457410       1.50618263516162
H         3.27652415584926       0.60336286350361       2.54445550687695
H         1.71443906851635      -0.12665893516638       2.93214510377745
H        -5.95776000849614       2.67120642538590       1.77175874746293
H        -5.10980573585356       1.89865415873101       3.11908735254713
H         2.44604315965867      -2.26405846770102       1.85688996232337
H         4.01369342998284      -1.53449272791160       1.47803723615306
H        -6.86407432771440       0.44630065338164       1.06768107886357
H        -7.31692349642647       0.83278528438862       2.73574597951618
H        -6.01486973483937      -0.32439016641752       2.41777353358895
H         2.87961173491510      -1.92649375853827       4.29852763654827
H         4.14774790162605      -2.90747232391140       3.54505514870419
H         4.44993759674793      -1.20244318793322       3.91862528664550
P         0.70650079250771       4.21974783176246       4.47361051677977
F         1.81273290467419       3.11095465103342       5.06349186780652
F         1.06264363250669       3.68381952169013       2.86949755610384
F         0.31112223995342       4.76595174609115       5.99495304564002
C        -0.64383974672085       2.80438785521002       4.63464116962295
C         2.22626733011018       5.45452771212935       4.40778229923545
C        -0.59055026810673       5.48743705128883       3.59346556436243
C        -0.32891175448823       1.58457252424841       5.54220470051693
C         3.30535179958738       5.21954429685570       3.31581666462351
C        -1.33816961825393       6.59756018372602       4.37837869211210
F        -0.94216034705971       2.26206665049812       3.42443446825108
F        -1.77846920653474       3.34976910393736       5.10335743663471
F         2.85865416648323       5.38627450227727       5.58831279108905
F         1.81555709274073       6.72717219261699       4.25575933880428
F        -1.57335218774140       4.76631725033594       2.99407440902266
F         0.06518701742387       6.09346110401974       2.56992497761209
F        -1.43470693588006       0.85052816486053       5.70378617068443
F         0.10142908674642       1.94314641388453       6.74186302594378
F         0.58623490059497       0.79918039110666       4.97113369768292
F         3.69953982828200       3.95182717515045       3.25121429612403
F         2.83534544102447       5.55795078535697       2.10402759503950
F         4.37983759926616       5.97070240113759       3.54521823685958
F        -1.98566834885751       7.39632964086427       3.52060908432822
F        -0.52188624798561       7.35265248877537       5.09988003176504
F        -2.24053710775796       6.05900664063425       5.19141411062589
