61
C17H36F6NP optimized with ADF in AMS.
N         0.10625638784156       1.64688750186754      -0.11704129203260
C        -0.66679194361603       2.35937233379368      -1.21763136847132
C         0.59375130154945       2.68554859706683       0.88922596032896
C        -0.74093021153047       0.62166855121503       0.60215252048503
C         1.31105923234528       1.00183872863429      -0.79720475363720
C        -1.79667546256647       3.23155163683812      -0.69894479198049
C        -0.51533512205046       3.58206800261394       1.41568402782732
C        -1.25575202307841       4.27764107119652       0.27508462514285
C        -1.22951038371294      -0.54653395292844      -0.23608283362667
C         2.24468158209760       0.22164199252031       0.10826881752547
C        -2.10571849491903      -1.47419812783447       0.60974944263286
C         3.47278109214582      -0.22715904667498      -0.69263253054466
C        -2.61759966781828      -2.67660605662509      -0.18033853557282
C         4.48312346162225      -0.98468694810957       0.16791545395389
C        -3.49984034514486      -3.60572787155038       0.65115777245847
C         5.73207283018530      -1.40253270194629      -0.60747081578199
C        -4.00843317943936      -4.80466479532489      -0.14568097809305
C         6.73792626884733      -2.16364195735324       0.25464246947714
H         0.08492555474407       2.98107592415077      -1.72661931114447
H        -1.01495112396916       1.58355365835987      -1.91288236662614
H         1.08413775815350       2.13001537211790       1.69898440496405
H         1.35227177005982       3.28416753487889       0.37015699905398
H        -0.12739698866721       0.26044309151426       1.44088190335691
H        -1.59505510972723       1.16194747602268       1.03011068703139
H         0.90077260316624       0.36129402512312      -1.59289804437293
H         1.85161279514520       1.83786157090575      -1.26302163812433
H        -2.25966965595171       3.71115504677367      -1.57785939698192
H        -2.59008495602093       2.62609355312365      -0.22499488135054
H        -1.22274520786086       3.02291258964448       2.05312453017045
H        -0.02375693078263       4.32331279560349       2.06676871053271
H        -2.07180086882173       4.90488609793315       0.66687518516632
H        -0.55095192364268       4.94071149005269      -0.25699269487021
H        -1.81705310305556      -0.19245679499896      -1.09957301780834
H        -0.37846896630938      -1.12416800876384      -0.63239298555982
H         1.74692381062300      -0.66301331520213       0.54423005013061
H         2.59594576615627       0.86220109089999       0.93245794272772
H        -2.96581890159352      -0.90679079445395       1.01144215529224
H        -1.52927276935431      -1.82962264827716       1.48390104687664
H         3.95344043561133       0.66830746224750      -1.12364695080365
H         3.15452009501369      -0.86617564297755      -1.53763824738457
H        -3.18747199250547      -2.32160880582451      -1.05945588749736
H        -1.75670043204489      -3.24699369635273      -0.57688669936746
H         4.78379435811278      -0.34331797439671       1.01728504872377
H         4.00496730481976      -1.88334564672426       0.60375422890303
H        -2.92794118234811      -3.95602805039752       1.52959419696659
H        -4.35633389993843      -3.03043049905588       1.04770151177509
H         5.43294337651412      -2.02682936542861      -1.46927971554301
H         6.20890459159443      -0.49927580554371      -1.02820943984289
H        -4.64205128902858      -5.46026513625448       0.47041248577963
H        -3.16936623514745      -5.40889529691554      -0.52659296932861
H        -4.60498216556500      -4.47731404434256      -1.01229239364687
H         7.07350157750652      -1.54820149540323       1.10496485198884
H         6.29218064758435      -3.08530148518829       0.66427691126267
H         7.62944046016775      -2.45071256278776      -0.32318380287750
P         3.45242099113079       4.53358887171977      -1.13017596523666
F         2.51666323816709       5.17456665478539       0.09366855470343
F         3.30221502954708       5.91432267546018      -1.99147606822886
F         4.81697584521917       5.06284595279567      -0.40478086889591
F         4.30389354171279       3.81429379127878      -2.33613364569685
F         3.53482320574122       3.10162108784655      -0.24715396920463
F         2.01989363248560       3.95193426075229      -1.83892802860374
