47
C13H26F3NO3S optimized with DFTB in AMS.
N        -0.33706425490019       0.33615210742065      -0.03532821843408
C        -0.06732724078022       1.71193572262771      -0.57377205241093
C        -1.11157858145551       0.43107925985683       1.25110973044116
C         0.95413675495332      -0.37825217032321       0.29671911252851
C        -1.32869609072126       2.55713517285149      -0.70872053739608
C        -2.39648963535739       1.23565072517614       1.11551737041077
C        -2.08497021208727       2.64354792153752       0.61433433292659
C        -1.08223112107711      -0.47248878132349      -1.03444714254071
C         2.04338666424981      -0.28410927557676      -0.76580485352003
C         3.26749088939100      -1.06797786893029      -0.27769369450244
C         4.41506964532698      -0.97574049255013      -1.28671600645693
C         5.64686538736092      -1.73999933406117      -0.79141507840420
C         6.80592868576102      -1.62792790873906      -1.78037520993459
H         0.40536561721650       1.59427469855441      -1.55038677374743
H         0.63254806013129       2.19195757330836       0.11058567337103
H        -0.45661302922202       0.91213695310154       1.98115503843136
H        -1.31847614704223      -0.59095330940948       1.57711608557368
H         1.32994958994956       0.05229133106425       1.22544602519178
H         0.68790749120513      -1.42255198862343       0.48314665955375
H        -1.00914728386474       3.55610804654066      -1.01653482230130
H        -1.98072673004548       2.16029089630670      -1.49398112459348
H        -3.10684590570618       0.73710761691342       0.44814490461103
H        -2.85160842813690       1.28654588772994       2.10802063820145
H        -1.46852881702639       3.16430650033988       1.35209735996363
H        -3.01209738622252       3.20454522038475       0.47548180892553
H        -0.47196684403979      -0.57841428291162      -1.92902309064411
H        -1.29057382239761      -1.45357959258651      -0.61113684732232
H        -2.01653044914434       0.02031704029419      -1.28994291727809
H         1.70080477941414      -0.68257943260160      -1.72601373763062
H         2.33901573486469       0.75843138662768      -0.90248754815635
H         3.59109246223604      -0.65221630115501       0.68155157810697
H         2.99668546356725      -2.11770272373361      -0.11903278739199
H         4.67672210225826       0.07612018656748      -1.44246621281293
H         4.09104217036718      -1.38591521699108      -2.25008190397033
H         5.38852892349475      -2.79520598821915      -0.65011112958682
H         5.95632259148712      -1.33854613772252       0.17901538770573
H         6.52199214582354      -2.03697924905088      -2.75129460717520
H         7.09366074639305      -0.58432082370001      -1.91430380346360
H         7.66911721197041      -2.18104129477026      -1.40944371014851
S         1.78889124192086       2.30297845348286       2.38524883550229
O         0.64895418474189       3.18192868246974       2.16490394677594
O         2.59790579980140       2.08073428548020       1.19346818722898
O         1.45345608558529       1.07843447572666       3.10007490131043
C         2.89386629223110       3.23448588465211       3.53570705865697
F         2.28501841599173       3.45092261486728       4.69406976586042
F         3.22778208674359       4.40654307786556       3.01074590371008
F         4.00491928788935       2.54582611263119       3.76599649073496
