54
C14H26F6N2O4S2 optimized with ForceField in AMS.
N        -1.88366672665501       0.10315281270051      -0.08761796158635
C        -2.08132815349100      -1.10796556342542      -0.94201764532134
C        -3.01519802295880       0.07405676506789       0.88900949742915
C        -0.58522465026393       0.01069071405320       0.65661360466828
C        -3.44904377854690      -1.68818581193713      -0.63425095369999
C        -3.69159236751403      -1.27884760293078       0.79084037647462
C        -1.96797093701516       1.33445432355009      -0.93835044152974
C         0.67547961248569       0.04544302886426      -0.24038806107998
C        -1.74719699625215       2.65340870702740      -0.17502009423596
C         1.94133071641518      -0.19432841202760       0.59208625435579
C         3.19271844961506      -0.19428322589244      -0.29356991078800
C         4.46153651277144      -0.37221500853969       0.54804492492525
C         5.70656718528485      -0.40380146581659      -0.33313504162071
H        -1.33748129744371      -1.90673888229703      -0.71762316618508
H        -1.99711684021493      -0.89672720156385      -2.03258339901762
H        -3.79100791001487       0.83884138882506       0.65512716591331
H        -2.69523230468192       0.25970753262341       1.93952367118473
H        -0.56683864810635      -0.93110543701680       1.25334615129829
H        -0.50414917930783       0.83427544446956       1.40056754181411
H        -3.46936946456738      -2.79352564438986      -0.75295950813075
H        -4.21482185658484      -1.22615873639901      -1.29623560445696
H        -4.77642743255617      -1.21985063737975       1.02383871353526
H        -3.19863458488850      -1.99881451058053       1.48101636329814
H        -1.23357243592769       1.29152696122534      -1.77224023308164
H        -2.96676747229280       1.38719926010709      -1.42999045224740
H         0.61285883503779      -0.72921018255508      -1.03288453645330
H         0.76895487475410       1.03741888890429      -0.72885497841276
H        -2.00597069093844       3.50574235477710      -0.83797671796263
H        -2.38358616459977       2.71604703448956       0.73097300373229
H        -0.68362713908288       2.77078793052300       0.11691614737990
H         1.86300999233523      -1.17458918283681       1.11230920916070
H         2.03108326770543       0.60691871271070       1.35907869383905
H         3.25399547112043       0.76788923190341      -0.84884485830073
H         3.11928029926497      -1.02443946303107      -1.03081989251098
H         4.55204697404845       0.46955706885378       1.26913426815544
H         4.40192370091342      -1.32294401666083       1.12180566643771
H         5.79716480747100       0.54282888698586      -0.90758797444376
H         6.60946963892502      -0.52123744489603       0.30249121594478
H         5.65630158906377      -1.25906666958070      -1.04042347325075
N        -6.67928020271756       1.20847600358685       3.80741329003658
S        -8.15495588229218       0.62947555826306       3.38644639867848
S        -5.87439852928079       2.32778135937283       2.91977719706537
C        -7.95634865927910      -0.84082450044049       2.40127915369832
C        -6.31219108513046       3.95994547740470       3.48249078405481
O        -8.91931993670067       0.27701674802679       4.63144518750019
O        -8.92241442593022       1.65493670481978       2.59885117633870
O        -6.21870337140409       2.19242283044054       1.46234798501267
O        -4.39595379609995       2.13768980039778       3.10860869377026
F        -9.19107832726508      -1.42332757148190       2.18455427518548
F        -7.13912754405725      -1.73562263998982       3.06526441646885
F        -7.38736852212381      -0.51422691441003       1.18589599850600
F        -5.68754085420762       4.90528032046111       2.69082986586300
F        -5.90497078587364       4.12102186858864       4.79317242270840
F        -7.68035930204434       4.13156420885566       3.40460827678251
