39
C9H20F2N2O4S2 optimized with ForceField in AMS.
N        -0.04075642168572       0.24500800795717       0.18150968129875
C        -0.96505320597211       1.24835203110857      -0.43811971288210
C        -0.48963045475087      -1.14476165785685      -0.14152965981210
C         1.31561468762902       0.49176312853688      -0.41275297855954
C        -2.45568853646034       1.01804144808979      -0.12801050263258
C        -1.96541531811778      -1.41154049467751       0.20111623792638
C        -2.87350976003150      -0.40219741725435      -0.49034188014840
C         0.01796179579240       0.45409278472032       1.65413868475170
C         2.45803466265385      -0.40537646705415       0.12211059407837
C         3.77286122178286      -0.08470860466707      -0.58568942402301
H        -0.86279215097948       1.23393095876733      -1.54770911191690
H        -0.69777157237439       2.27944850074612      -0.11134259614320
H         0.11045132271284      -1.89626258383868       0.41545580347189
H        -0.34746597479243      -1.35383948726995      -1.22687457913005
H         1.61446988885204       1.55273486822762      -0.24358935357069
H         1.27482955381100       0.35492401161267      -1.51805093658713
H        -3.06148783772316       1.73207288163062      -0.72708997140034
H        -2.68145912682868       1.22499242370902       0.93844891915258
H        -2.12458642418509      -1.37832418086906       1.29991777077117
H        -2.23774937475055      -2.43389975289067      -0.13980148798216
H        -3.92561027831330      -0.57165073557756      -0.17536765511163
H        -2.81574753465145      -0.54045614321770      -1.59276609249154
H         0.58716809765425      -0.35510814404489       2.15899921761471
H         0.49540211443801       1.42822978999202       1.90180973437758
H        -0.98592544866940       0.45244475814618       2.12094909391926
H         2.61298088377691      -0.24006068160722       1.20809340518309
H         2.23671097007030      -1.47756166959435      -0.05245160258982
H         3.67923139067525      -0.26728121453779      -1.67768048293259
H         4.05531709862316       0.97597874913180      -0.41465403889235
H         4.57937950203642      -0.73503753482284      -0.18586287509054
N         2.60235986734657       0.46465089575962      -5.04902067883113
S         3.96678992191052       0.80102063277961      -5.88669630286212
S         1.36282717133062       1.52993358543917      -4.98511876876506
F         4.85365518882379       1.95416355191800      -5.05843861734323
F         0.71766173663921       1.72508478727381      -6.51770401989042
O         4.78694414030614      -0.44902216575106      -6.03434050415512
O         3.61681532550028       1.34002391941169      -7.24562026270309
O         1.85991393330019       2.86062491367331      -4.49400220860534
O         0.30146563882063       1.01262811820038      -4.05681606189332
