34
C10H21NO2 optimized with DFTB in AMS.
N        -0.16011584102012       0.42904789196679      -0.22824277927913
C        -1.42068593589429      -0.01423915428690      -0.90296051176069
C        -0.19522011486063      -0.27941165289178       1.08849424109922
C        -2.46265034198978      -0.10746142358322       0.21224899085932
C        -1.65551338606611      -0.22997116137643       1.51729364193753
C         1.02954864526135       0.03235451157143      -1.04858513687030
C        -0.18820397474927       1.90329384168229      -0.03164151501792
C         2.37290079041047       0.37494394057506      -0.40554397342637
C         3.50375866047394      -0.18715543364705      -1.26303333766480
H        -1.23773354331031      -0.99428422808561      -1.34977272311337
H        -1.68210289911738       0.69633532775068      -1.68784651977450
H         0.50347040762031       0.21489133732767       1.78721879033743
H         0.12833880705495      -1.30903143109799       0.91726759628469
H        -3.10302438699752      -0.97678393277932       0.05307507427532
H        -3.09551320684901       0.78195042825378       0.22753137807795
H        -1.84136769774915       0.62850826817947       2.16553930331699
H        -1.91939614308796      -1.13399476296354       2.06825068101286
H         0.92630517094979       0.53313273126347      -2.01633955562140
H         0.95548997200613      -1.04809266453603      -1.20822264574764
H        -0.15235309848074       2.38699360274705      -1.00619197562001
H        -1.10521934847277       2.17632594577988       0.48416755663569
H         0.68585411722203       2.20448805108936       0.57645517565570
H         2.48619036464780       1.45731061301155      -0.31371297476098
H         2.42772364585617      -0.04632008689268       0.60077228185186
H         4.46010599260822       0.05580281961813      -0.80187657705464
H         3.42458765880577      -1.27227897657075      -1.34881959773044
H         3.48173589346394       0.24429673197260      -2.26524504936486
C         3.17699727230610       2.66182349161219       3.66459466485910
C         2.34883838277527       2.05174556203842       2.51142145660110
O         1.97121408247709       0.86921710720851       2.66783964639020
O         2.12193493515249       2.78333859787745       1.52433422005384
H         2.55783366762181       2.69823600087729       4.56037415354243
H         4.03591459362909       2.02263991816505       3.86411496237913
H         3.51085112740232       3.66478603714319       3.40691739053670
