19
C7H10ClN optimized with ForceField in AMS.
N         0.17178639377770       0.00313420397207      -0.37542322694730
C         1.61233737430977      -0.00185073452441      -0.65369442569909
C        -0.50020611421913       1.19199218661112      -0.29325794856979
C        -0.48126563533496      -1.17963699182335      -0.16044758896470
C         2.39926830222120       0.02961032086754       0.65186418394928
C        -1.86454689956748       1.21575190154033       0.00560035625240
C        -1.84317771534617      -1.19102490274277       0.14853960208136
C        -2.53743822306506       0.01524829127747       0.22889413137641
H         1.89231016383614      -0.90870997683435      -1.23425465255154
H         1.89348070675827       0.87839835234468      -1.27346924723853
H         0.02036174226209       2.12994706033894      -0.44705242523818
H         0.05294767951510      -2.12090319485072      -0.21593827268843
H         2.15054402476025       0.94920849861084       1.22319397784910
H         3.48789781475979       0.02387307917580       0.43504276566252
H         2.15020957403473      -0.85945565484287       1.26942811849455
H        -2.39226045041404       2.15840619107121       0.07098096200257
H        -2.35268019019918      -2.12798038447473       0.33054180770806
H        -3.59289026188721       0.02006239730185       0.46939052880188
Cl       -4.12534714200180      -3.28890928441864      -1.84417844828055
