49
C13H25F2N3O4S2 optimized with ForceField in AMS.
N         1.35509173108839       2.26428948068672       0.01608285675288
N        -0.85209997589118       2.42953519311603      -0.20350270001386
C         2.73357442128767       1.86399624664196      -0.25886838692181
C        -2.19721488808422       2.25418198781477      -0.74983405056600
C         3.03154659231985       0.47788036520716       0.33015444413154
C        -2.46188870076212       0.78164673978722      -1.09898398335563
C         2.12549708102334      -0.60894077649718      -0.26898370054027
C        -2.40035734914932      -0.12325632416144       0.14073853945010
C         0.31137831689343       2.16552288687446      -0.82963047418675
C         0.83697672654120       2.61259169672386       1.21124912518655
C        -0.53168857034267       2.72221624775464       1.07328977455131
C         2.50748309448035      -1.99953834415343       0.24727936447383
C        -2.59873133551577      -1.59445920569967      -0.23862694575958
C         1.57333333915217      -3.06747799106455      -0.31583566213779
C        -2.53785517366990      -2.49230274584065       0.99398706508908
H         3.42837163658583       2.61157772640417       0.18098005072613
H         2.91267812247815       1.84559182834005      -1.35652122291523
H        -2.30114050320412       2.87410950247300      -1.66613824361881
H        -2.95760373279786       2.60365592531172      -0.01711894084888
H         2.90099386695202       0.50860981158390       1.43397526903608
H         4.09302430187235       0.22987307328563       0.11592341277685
H        -3.47068173580421       0.70248659689113      -1.55954651887922
H        -1.71791310668852       0.44106824595480      -1.85179366936372
H         2.21087818904899      -0.59226502981143      -1.37791852604973
H         1.06865589718071      -0.40426347415499       0.00765419046365
H        -3.19118893446083       0.18579867658334       0.85918745440487
H        -1.41199959193966      -0.01495831104162       0.63739071181440
H         0.38958856282796       1.83202913636195      -1.85712641056843
H         1.40402009383835       2.72378532981473       2.12632914319412
H        -1.24357262438403       2.93398755131755       1.86052221207578
H         2.44602030784465      -2.01801630994343       1.35733085178297
H         3.55122414825140      -2.23710089010024      -0.05329683614155
H        -3.58568735016833      -1.72597698581337      -0.73316631771419
H        -1.80291699013622      -1.90754921908064      -0.94953864585466
H         1.62006914572213      -3.07592121114743      -1.42573733072417
H         0.52777000077155      -2.87255554667445       0.00400720438460
H         1.87873563156745      -4.06617980762914       0.06083909345881
H        -3.34786027983962      -2.22498179788060       1.70563842434926
H        -1.55532892430873      -2.38644084736598       1.50172058287005
H        -2.66722684281006      -3.55209379367499       0.68925111312218
N         7.47180009931416      -1.04964760352050      -1.74282300278202
S         7.48669410790369       0.07058765514673      -0.54970816682589
S         8.56680200173845      -1.01324186885995      -2.95843793522746
F         6.78790537597494       1.48354796321645      -1.11365819761791
F        10.07200689401752      -1.43535980964059      -2.35903123608378
O         6.70190175570109      -0.43750919971365       0.62551677154716
O         8.90048244205923       0.35890318345900      -0.12898418113323
O         8.64427660098688       0.37182177273119      -3.53642404621184
O         8.16365161443349      -1.98741626731224      -4.02807636999979
