43
C13H24F3NO2 optimized with DFTB in AMS.
N         0.70164645512010      -0.02510031175475      -0.21581583583616
C         0.54567208278139       0.52170200505983      -1.61072149979180
C        -0.30059924065154      -1.12077270914212      -0.00918863705285
C         2.08885259160043      -0.60881918327367      -0.14480384515429
C         0.50576508110540       1.05455736975330       0.81088631905277
C        -0.86346242267281       0.97471413594896      -1.94725137367826
C        -1.73403928945921      -0.69141024702356      -0.31116242585002
C        -1.86041770473013      -0.16082219702149      -1.73892835965408
C         2.47672057382196      -1.21074001746575       1.20142173816859
C         1.58612737368946       2.12706108556674       0.81409599772201
C         3.93284170853455      -1.69209223119020       1.12428109721716
C         4.39677014207823      -2.26054502136402       2.46305630915003
H         0.85002735713791      -0.26670623454525      -2.30008485323870
H         1.24022337755163       1.35029025015275      -1.72000358603225
H        -0.22002985143889      -1.46147740435219       1.02520232570213
H        -0.01232566574894      -1.93841953309027      -0.67546419982464
H         2.78243993606209       0.18729636348984      -0.41739148013637
H         2.14451874964216      -1.37401056142857      -0.92216476193094
H        -0.46181113489399       1.51636599423018       0.60762290410990
H         0.45251571349799       0.56849758644548       1.78824169631535
H        -0.83599842560688       1.27486409627987      -2.99823735642543
H        -1.15361470669175       1.84738572859111      -1.35515382178418
H        -2.06395464587994       0.06638769465229       0.40510584104439
H        -2.36892881163931      -1.57169380561515      -0.17866284026578
H        -2.87921190960562       0.19432638527726      -1.90935262563942
H        -1.65577194862651      -0.96800678496917      -2.44890475480111
H         1.83080390574305      -2.05822864725886       1.44927543307845
H         2.38654960455263      -0.47177279898310       2.00193389229673
H         1.25969992741328       2.92082177969134       1.48588892786653
H         2.53726499323143       1.74336444181102       1.17724099869852
H         1.73541259407581       2.55473586027606      -0.17481612961465
H         4.57544019461719      -0.85310932994810       0.84056536684699
H         4.02053963951318      -2.45930525268802       0.34900788028644
H         3.76347270946188      -3.09588707176908       2.76499602775423
H         4.35617632362425      -1.49510526478286       3.23907124290695
H         5.42368560446053      -2.61477042122418       2.37760975144402
C         2.54657047351979       1.59028179693538      -4.28847499672891
O         1.37125552851254       1.39500169772288      -3.99695097490254
O         3.14448557080762       2.13307228316441      -5.18249743414246
C         3.55143194309786       0.93447923593963      -3.10656494515537
F         3.18811954033816      -0.34584829779536      -2.78578522892180
F         3.42465316759670       1.61655747806382      -1.91744997906479
F         4.85825987615636       0.89592795073355      -3.36838128343439
