64
C18H26F18NP optimized with ForceField in AMS.
N        -1.88956603946989       0.13921051393545      -0.05114611832134
C        -2.09752502387630      -1.06914166058799      -0.90670352804699
C        -3.01619778894848       0.11346189625405       0.93264057233919
C        -0.58646676795052       0.03908597740861       0.68346789474285
C        -3.47935188632367      -1.62145549358322      -0.61654825213977
C        -3.72139934042650      -1.22404350628053       0.81193308088368
C        -1.97364232531626       1.37171339562401      -0.90070828957451
C         0.66754547410347       0.05724430047263      -0.22327007881794
C        -1.73800629025480       2.68843556122050      -0.13874394881564
C         1.93784789255475      -0.18294380517636       0.60216264408996
C         3.18563123387693      -0.18356671664390      -0.28904700134555
C         4.45741489545116      -0.36776429571071       0.54682372491973
C         5.69985168999472      -0.39468035328979      -0.33833003854555
H        -1.37259055207961      -1.88162879875551      -0.66913787983460
H        -1.99298534270734      -0.86190991679718      -1.99611881420032
H        -3.77790605357069       0.89927834732649       0.72253574931687
H        -2.68675197419817       0.27200849638219       1.98504793424760
H        -0.57132191060051      -0.89996907229756       1.28469213007234
H        -0.49336460676894       0.86484281782366       1.42334162582682
H        -3.52415661434337      -2.72448515028261      -0.74842812404295
H        -4.22889430261532      -1.13251344934121      -1.27774524906061
H        -4.80717135866161      -1.14550508201854       1.03753527221767
H        -3.24802257934230      -1.96381792342662       1.49519468630169
H        -1.24680973066142       1.32534558804777      -1.74076158226724
H        -2.97627008756491       1.43061287750647      -1.38373360069069
H         0.59409756513890      -0.72518601422727      -1.00735459191828
H         0.76301246885841       1.04336488501999      -0.72304684083715
H        -2.00158243581489       3.54271451397440      -0.79657998321894
H        -2.36290056972202       2.75294572034238       0.77477402679422
H        -0.67063064802010       2.80106168150213       0.14087904860012
H         1.86156771602777      -1.16273115028384       1.12345936652355
H         2.03212856817200       0.61827415649957       1.36839049473624
H         3.24661854098324       0.78019888264284      -0.84117621506211
H         3.10681063871711      -1.01071412662806      -1.02876668794103
H         4.55197674562486       0.46883533294408       1.27309322486052
H         4.39970784051893      -1.32208939513558       1.11440678814043
H         5.78949237188697       0.55522901295428      -0.90735801962176
H         6.60421097529445      -0.51613205317501       0.29455009126952
H         5.64759137362806      -1.24580891326053      -1.05026644014850
P        -3.65176487944007       6.91144555319716      -5.48531349036942
F        -4.47633576896955       7.05046552715064      -6.99094122372200
F        -4.74973691560069       6.90143664231650      -4.15637781057890
F        -2.42061178877580       6.58182244461711      -6.64149953836710
C        -4.46377207701807       5.15522988214686      -5.61214680066364
C        -4.09314273031180       8.78480955007565      -5.70362800039199
C        -2.06303221019538       6.98006476433324      -4.38789561724619
C        -4.06613341459378       4.27149703145190      -6.82380924575949
C        -3.76772505506265       9.72797150791537      -4.52571942200263
C        -1.37131486293712       5.64395584312241      -4.06002560273843
F        -5.84439955675011       5.30119958263051      -5.67249879805920
F        -4.19093776850347       4.43042477216490      -4.46874517442357
F        -5.46140194687074       8.91738038810097      -5.92367039037721
F        -3.42376596824844       9.27926847181091      -6.81472328015497
F        -2.39310262658100       7.53964372792652      -3.16677802850634
F        -1.11974789784795       7.80619929199244      -4.98283292445721
F        -4.66762168068564       3.03296440981678      -6.68442034028524
F        -2.70497108880520       4.06876731632609      -6.89606193843949
F        -4.50312312110029       4.81592832500106      -8.01787323053404
F        -4.30222795947351      10.97566246742831      -4.79632745044252
F        -4.32804302166771       9.27792462923892      -3.34489316230245
F        -2.40627862004589       9.89234744523707      -4.36688321705795
F        -2.14047202658064       4.88958932089706      -3.19658852597889
F        -0.17297132978626       5.91009923003181      -3.42081334842249
F        -1.08776902374236       4.91652435909030      -5.19439441625017
