42
C10H22F2N2O4S2 optimized with ForceField in AMS.
N        -0.87871647352792      -0.16688522724766       0.04561547394204
C        -2.01275520812367      -0.28122955496752      -0.92196876611570
C        -1.21575491479708       1.01462886535674       0.89848116598240
C         0.39533015418450       0.08300557686978      -0.70548705426808
C        -2.84427780395684       0.98280436456875      -0.83076373751328
C        -2.63670267986204       1.44177876542780       0.58462298703767
C        -0.80456676286337      -1.39634676441870       0.90000417509194
C         1.65519844804252       0.18722546703317       0.18833400419483
C        -0.43892713179213      -2.68215691381968       0.13606952577884
C         2.87108605163984       0.64233611717574      -0.62811567669063
C         4.11120139712107       0.76501149022836       0.25244267748067
H        -2.69223934340323      -1.13006032795664      -0.67561191946445
H        -1.68093487303447      -0.43985515567740      -1.97371392074614
H        -1.11718980504676       0.81206673269051       1.98980215079882
H        -0.56246390431497       1.89118482818288       0.68222455459898
H         0.56919650861812      -0.71896888290848      -1.45729890272747
H         0.29876503258086       1.02481545896334      -1.29459992956426
H        -2.45048898932903       1.74585035216654      -1.53812886738949
H        -3.91844602100807       0.79029742193977      -1.04362193359768
H        -3.34748084988475       0.91710303880524       1.26093577785928
H        -2.77121621186711       2.54159238228214       0.67873182351484
H        -0.06895849249958      -1.26263670044765       1.72343086310014
H        -1.78325771497570      -1.56619358758743       1.40505553496228
H         1.48912020597594       0.90591732421327       1.01775262919982
H         1.88929383543175      -0.80373385639937       0.63029766752044
H        -0.56619439640233      -3.55503202047060       0.81052693926100
H         0.62063138130574      -2.66629656782887      -0.19035850067248
H        -1.09071858904812      -2.83312964764264      -0.74829106218539
H         3.07408222248825      -0.09337038086884      -1.43680121751959
H         2.66479557185255       1.63089636774952      -1.09365291934608
H         4.33576086912535      -0.20553386891185       0.74387979137451
H         3.95402684309358       1.54187924908270       1.03093631813070
H         4.98201990545957       1.05757584232372      -0.37132274381862
N         6.80286500181970      -2.45436652317860       3.05874015092431
S         6.41012852107161      -3.88288984287985       3.75438121005620
S         7.12161391187680      -2.35098789772722       1.45681913818805
F         7.76100817381047      -4.87111352120520       3.79916217251907
F         5.71454911698294      -2.61779081745429       0.58969493980047
O         5.92122178832795      -3.64339995458283       5.15396689756913
O         5.33638009908262      -4.56357692179941       2.95304981555240
O         8.13430063469144      -3.39200098943711       1.07052911466099
O         7.65480176835402      -0.98402807644215       1.13675446271951
