45
C11H24F2N2O4S2 optimized with ForceField in AMS.
N        -0.55398580371179       0.09223757851513      -0.10361133491459
C        -1.55689552463461       0.54361630166247      -1.12319926439820
C        -0.88506079319911      -1.31042643266008       0.31168306003063
C         0.78330334521690       0.08619488640833      -0.79240434054205
C        -0.54956032145760       0.98683486191396       1.10665342120237
C        -3.01984363250030       0.42815650019427      -0.66181546014849
C        -2.33674922389895      -1.49474792312111       0.79817293457293
C        -3.33712984665702      -1.00392539067771      -0.24372070993539
C         1.99576682696538      -0.29605159954532       0.09261170549246
C        -0.11729122401208       2.44386025649072       0.86001485357745
C         3.29740877788790      -0.24085292786829      -0.71763941602535
C         4.49042429088572      -0.68924476708991       0.12262469590447
H        -1.46370821512108      -0.07126666559320      -2.04911088629995
H        -1.36610340951915       1.58796599659260      -1.44731677207444
H        -0.22352497833043      -1.64781389210211       1.13844738048154
H        -0.72457316374822      -2.01632844306128      -0.53593768629561
H         0.98564171445548       1.07753906287397      -1.25589252156266
H         0.76380132851003      -0.62802668549919      -1.64859813341778
H        -1.55042970097112       1.03360557821197       1.57691751413675
H         0.10339672370651       0.56573342001197       1.90121978463288
H        -3.68573110961424       0.70938658238217      -1.50628206922329
H        -3.23933829368706       1.13398856783892       0.16545130598769
H        -2.50186697625167      -0.97122296450437       1.76284456162819
H        -2.51792885377381      -2.57505177544313       0.98687074978102
H        -4.36476926504491      -1.04917451700839       0.17693094974552
H        -3.30064778605217      -1.66866022329341      -1.13500555070142
H         1.87398241123202      -1.32627035717460       0.48563802944987
H         2.09981230922727       0.40519554347298       0.94518096861665
H        -0.13103371648373       2.98743464088155       1.82839297228915
H         0.91572594073869       2.51279419971940       0.46606803821054
H        -0.81932207011704       2.97002579104863       0.18346778138688
H         3.47510613201131       0.79886134646700      -1.06943970214947
H         3.21769082828803      -0.90054825428538      -1.60821480090044
H         4.33993526100882      -1.72893763841931       0.48446318301776
H         4.62329807760318      -0.01334522707561       0.99417953226662
H         5.41295361620652      -0.65972372221667      -0.49453877370435
N         3.13427662126898      -6.12285787108629      -2.01939062684101
S         4.38592900206877      -6.56530965617808      -1.06238371906686
S         2.04946421450064      -4.99833396057795      -1.53324219370684
F         3.81820981840663      -7.55073655263590       0.16613073045335
F         2.79407415056901      -3.50136297078962      -1.48027025463527
O         5.39902611700876      -7.31813411692915      -1.87634384155080
O         5.02570049773404      -5.34857984982381      -0.45492785210761
O         1.54134499252890      -5.33680974354996      -0.16021575586794
O         0.90244517505657      -4.95358558687623      -2.50160826439491
