36
C10H20F3NO2 optimized with ForceField in AMS.
N         0.00244273282811      -0.00361031378370       0.00383914933526
C        -0.84596774722542      -0.25820866584470       1.22048286602995
C        -0.84379161656508       0.24997353367779      -1.21417300036953
C         0.85050347773235      -1.22053666816526      -0.25021908024202
C         0.84906334373034       1.21414896238050       0.25872156608192
C        -1.90789044315176      -1.36684677853550       1.07938139720933
C        -1.90521858053446       1.35850631628110      -1.07623426816279
C         1.90910140870226      -1.08134889809703      -1.36233710273299
C         1.90819472222688       1.07532210852100       1.37041913809157
H        -0.20951448954693      -0.55597709074659       2.08151287800638
H        -1.36397653326809       0.67133480646003       1.54429162653073
H        -0.20628337437623       0.54773115976494      -2.07447427987808
H        -1.36121403481321      -0.67984454121603      -1.53819290425527
H         1.37073947819640      -1.54245564396419       0.67861587263428
H         0.21353171690091      -2.08226855295688      -0.54480427710017
H         1.36938705456754       1.53686667944892      -0.66982688945691
H         0.21078146056973       2.07516816128091       0.55304747307391
H        -2.47459175104534      -1.43889193815402       2.03158477661171
H        -2.64318861667388      -1.14716103830538       0.28118193745961
H        -1.44522924098424      -2.35767821266368       0.90165842523633
H        -2.47376880146310       1.41866309868855      -2.02689951794810
H        -2.63864154693161       1.14578139258581      -0.27462678668989
H        -1.44268124031638       2.35151845109433      -0.90958598358966
H         2.47477082539080      -2.03403693054927      -1.43549257342453
H         1.44368673374986      -0.90473200995823      -2.35214447778962
H         2.64527109069172      -0.28315479881538      -1.14557525895869
H         2.47409148721897       2.02796151841966       1.44286328596059
H         1.44324296388482       0.89846057372657       2.36041192186799
H         2.64464395810135       0.27742663208482       1.15336585665230
C        -6.28457556284047       3.59186550522544      -2.83675142367996
O        -7.06784705708785       3.11564570874972      -2.03036030402736
O        -6.66006283953054       3.82979164522400      -3.97360548306964
C        -4.86709471099233       3.88388583650920      -2.44180156446390
F        -4.00744163114123       3.15484642727489      -3.24142182482149
F        -4.64930430863937       3.54507818431575      -1.11737062209587
F        -4.60794147806453       5.23137802184193      -2.60991579042539
