33
C9H15F3N2O3S optimized with ForceField in AMS.
N        -0.68362234478415      -0.91325164600840       0.41089924953456
N         1.50544125277419      -0.53501321646157       0.30696784213726
C        -2.08807714483681      -0.80344192340237       0.80290187704886
C        -2.89782162843952      -0.04288195368821      -0.25414480971161
C         0.36024566047988      -0.26337913551136       0.96233829900467
C        -0.18128474045813      -1.62255617053586      -0.62032803211734
C         2.82498140193013       0.02850536609052       0.58003303987153
C         1.17634119746381      -1.38498259483407      -0.68691579958595
C        -2.37699506242702       1.37817779108189      -0.46202937987875
C         3.12970487849839       1.16076744282272      -0.39395204081272
H        -2.17323403974474      -0.27699661914846       1.77910532927008
H        -2.51405372968296      -1.82175983324708       0.93240055262458
H        -2.86854798485243      -0.59132050645593      -1.22038201811642
H        -3.95748729226945       0.01089830344109       0.07652139822415
H         0.28121926643618       0.42378089979850       1.79561828139140
H        -0.76021671456924      -2.24874363256126      -1.28665524451936
H         2.86065681112183       0.42559036729273       1.61795332145973
H         3.59762455744360      -0.76536872339396       0.48916621036946
H         1.86681365018772      -1.78916533691816      -1.41563951077906
H        -1.34637159364989       1.36053229996720      -0.87625834903302
H        -2.37686454944780       1.93671756528913       0.49812652741182
H        -3.03517975178909       1.90605529731616      -1.18180902243128
H         3.11496275577995       0.78505542566179      -1.43887356435731
H         4.13483320240385       1.57974151734200      -0.17670845850156
H         2.37392869037989       1.96797852728449      -0.28556296514150
S        -1.48529693658174       6.08605162018322      -1.01557144747747
O        -2.71287993735056       6.22653107851877      -0.10382230466320
O        -0.46770808561349       5.36301172046452      -0.12125664067590
O        -0.93531577182829       7.51823642722152      -1.08092322727850
C        -1.79850840352419       5.30532911194624      -2.62493561548214
F        -2.71742350240823       6.05612853255234      -3.33188760587656
F        -2.29876471436259       4.03384294151619      -2.43221097048510
F        -0.61883934177909       5.22967764057565      -3.33943373932336
