36
C10H17F3N2O3S optimized with DFTB in AMS.
N         1.45552231010538       1.16858641409000      -0.13219308565132
N        -0.63264395958255       0.97434859525835      -0.61764509219425
C         2.73802918036723       0.98233102181454       0.53545581703323
C        -2.01967755880308       0.51905852274580      -0.61908550983740
C         0.36522455165662       0.43989463328492       0.08472008337316
C         3.76834023232126       0.39436704110636      -0.42748586006695
C        -2.77253524717583       0.99332656250123       0.63314530633531
C         1.13931045633321       2.22374857241405      -0.94239927017817
C        -0.17676736113649       2.10243681331500      -1.25070258568233
C         3.37431256283903      -1.00059888262569      -0.90976367806639
C        -2.59086983817534       0.05922146147551       1.82600888986596
H         2.57186576080256       0.32388109739324       1.39123899586307
H         3.05528206939628       1.96366352161903       0.89789093567355
H        -2.02017188837279      -0.57311250269639      -0.68882769667297
H        -2.48608317658492       0.92837328085377      -1.51879964077560
H         0.30555301175789      -0.43090173935889       0.71183222100315
H         3.88452587664310       1.06318723101817      -1.28556045535853
H         4.72703932705238       0.34570416259779       0.09570022855597
H        -2.43207492046664       1.99698465322966       0.89598664533031
H        -3.83416856056943       1.05011388392222       0.37496347814271
H         1.85993749684543       2.97953044093701      -1.19758945697858
H        -0.82234473398889       2.72022455499281      -1.84926767854241
H         2.42523146805960      -0.96641595542700      -1.44697676676862
H         3.27088571857114      -1.68224350394886      -0.06459563543269
H         4.13844361560715      -1.39160637980280      -1.58075621948068
H        -1.55168094139662       0.04453576492356       2.14929716777921
H        -2.90095211628853      -0.95636700587295       1.57422424835676
H        -3.19906817569698       0.41611826082021       2.65639553192494
S         0.53682036821630       3.04432433761445       2.46469665660032
O         0.01634724215593       1.70055861846194       2.20920160840477
O         1.50502680267054       3.48954242267061       1.47199078366059
O         0.87926661458588       3.31389199577283       3.83446329738922
C        -0.93857517453039       4.11075773105593       2.10083123798758
F        -2.00503352023503       3.72130072795889       2.79492223787147
F        -1.25589339358304       4.00120226926915       0.79750732295004
F        -0.71477980830032       5.39045862891558       2.35524973788555
