37
C11H24ClN optimized with ADF in AMS.
N        -0.79097697893116      -0.42611754271542       0.19511212164574
C        -1.16115753166122      -1.54480377784839      -0.76940119003114
C        -1.86073945317777      -0.52126122153463       1.25848490013843
C         0.57333189851552      -0.65233558374261       0.79886792360634
C        -2.68405000735453      -1.50281800311874      -0.83012703704006
C        -3.14890290877090      -0.87302655243540       0.51045738311328
C        -0.87915875929247       0.90564687893649      -0.53887405749622
C         1.71452001017456      -0.62198952707222      -0.19642106868027
C        -0.41237690588027       2.10696401645202       0.26114249228179
C         3.03749343401056      -0.94411368412188       0.49460431418592
C        -0.67125153912966       3.37744879433179      -0.55173415435073
C         4.20213339631412      -0.91858226925903      -0.49259776802376
H        -0.64712127663050      -1.34604266317271      -1.74406371841345
H        -0.79574440748374      -2.47314715320951      -0.30342247668286
H        -1.55391167851694      -1.33170456502607       1.93654481887303
H        -1.89848248995229       0.41956764812684       1.82208531703109
H         0.51348718736643      -1.63863706525533       1.28974632595375
H         0.70090037315908       0.10696561024992       1.58690125760163
H        -3.01180365425456      -0.89787871716242      -1.68850798375811
H        -3.08554707286538      -2.51567194682604      -0.97380852453769
H        -3.75010951077632      -1.56998247592227       1.11243520023740
H        -3.76528196518358       0.02142822978455       0.33731130874021
H        -0.30600685266962       0.76423615348169      -1.48918738964012
H        -1.93769560024732       1.02076565219441      -0.81689162785153
H         1.52810743161661      -1.32380359403173      -1.02664667635438
H         1.77869241350715       0.35967159971921      -0.69268129521763
H        -0.93036000763588       2.18354605458156       1.23503620511144
H         0.66739507568304       2.03243807900537       0.47073212425216
H         3.22164319624731      -0.21855906843325       1.30931224551215
H         2.97490910959492      -1.94103808429687       0.97043870310655
H        -0.15315935685759       3.32535232729649      -1.52120893287288
H        -1.74676201300080       3.50695434713565      -0.75019793786324
H        -0.31473428636695       4.26607559069557      -0.01166029921531
H         5.15436209573360      -1.15308424424142       0.00543047378931
H         4.04148708618497      -1.64821992173187      -1.30090644663929
H         4.29182348449312       0.07265956574473      -0.96350182596213
Cl        0.45027367703844      -0.25163185337847      -3.31552395354940
