41
C11H21F6N2P optimized with ADF in AMS.
N        -1.05347250843977       1.81678766725262      -1.32253536462177
N        -2.37889676294660       1.39271557409213       0.34541332839540
C         1.39646762759558       1.80831680173934      -1.79113956811590
C         1.87227056341290       0.58394365001492      -1.01589886271581
C        -0.01574487987406       1.66905818270849      -2.35427840947961
C         3.28189356024302       0.76784794373582      -0.45775856366420
C         3.77246135084160      -0.45372401638657       0.31584036473877
C        -1.52099355256959       0.84781401006322      -0.52468552652400
C        -1.61137993129880       3.01621861160963      -0.93004271091205
C        -2.44456251012015       2.74662198373914       0.11452747505656
C        -3.10441027717579       0.65954946768101       1.39320891375415
C         5.16540892184226      -0.25093559104653       0.90614432418779
C        -4.38759924240692       0.04347213285273       0.86137008187941
H         2.06990643218753       1.99718505634110      -2.64716393663523
H         1.43790089176175       2.69677977564517      -1.13789047075906
H         1.84654669654731      -0.30273194257554      -1.68049897737471
H         1.19704275873797       0.39229553014800      -0.16581439279196
H        -0.23106008155952       2.43723479235621      -3.11197974172452
H        -0.16119391540984       0.68470007292593      -2.82658411143184
H         3.27663814357271       1.64005799929848       0.21941077804921
H         3.98432586730106       0.99526200501980      -1.28346262022212
H         3.77156848757991      -1.33571967751286      -0.35232742977972
H         3.05532593448934      -0.65977704627699       1.12878585206643
H        -1.22090429621407      -0.19098639874691      -0.54898444294182
H        -1.33787248078658       3.95311812838175      -1.39739088633343
H        -3.03407248713656       3.40353698527997       0.74068960500638
H        -2.40060566373316      -0.08088485014158       1.79864900871520
H        -3.28558266120483       1.38089788023424       2.19997879209152
H         5.16590315506322       0.60131298536088       1.60360683634162
H         5.90652081790280      -0.04520827626149       0.11669356778814
H         5.50077035737134      -1.14045661191652       1.46188506350221
H        -5.06457891385100       0.81382178000272       0.46249701670187
H        -4.90646406775725      -0.48079911571067       1.67831360874776
H        -4.18251864506072      -0.68727664124522       0.06474750667062
P         0.46100295450348       1.75742655561575       2.67010455842264
F        -0.07136839598172       0.35516072817095       1.88741559175856
F         0.35850872980305       0.97346700014714       4.10437445893467
F         2.01456088781686       1.25640343781598       2.46511049586154
F         0.96247672716890       3.13650954220617       3.39394787003102
F         0.51059729909807       2.51238005105946       1.17785945231310
F        -1.12955252541373       2.24550380812213       2.82205138711321
