31
C11H17NO2 optimized with DFTB in AMS.
N         1.67577355171547      -0.71517771669363       0.34980235564023
C        -0.74434028510494      -0.26475954728060       0.22237321921946
C         0.38139460967119      -1.00202464727560       0.96013579258819
C        -2.10341244917316      -0.57005530428499       0.85815378832253
C        -3.23369451142522       0.15754235668888       0.13220540493121
C         2.37339217711760       0.45649253687250       0.84766317201433
C         2.09595363734930      -1.42259600844123      -0.73632931984645
C         3.57897089187196       0.79770473766528       0.02172216728634
C         3.20326991402992      -1.08976549899008      -1.43732848885926
C         3.95484042727735       0.06609743370412      -1.03729801441319
H        -0.74599107552448      -0.57289035368886      -0.82810702935408
H        -0.55605073128098       0.81309704084395       0.25519515585452
H         0.21052239836337      -2.08264593179469       0.92330101982865
H         0.41974048376070      -0.69119650705014       2.00782367196741
H        -2.28549286115895      -1.64977888231693       0.82638622537580
H        -2.08925803449546      -0.26397043831052       1.90960275810040
H        -4.18940884374050      -0.07483310748300       0.60230371299660
H        -3.08019292046806       1.23682485383863       0.17106870312832
H        -3.27648031617244      -0.14964573067240      -0.91368392824420
H         1.67338698871317       1.31090277450214       0.89060084479403
H         1.48005428492288      -2.27753267137163      -0.99505607400382
H         4.11798801022984       1.68081693321868       0.34082766833205
H         3.51391874109631      -1.67574578128832      -2.29028592612351
H         4.82610927346418       0.34741219494757      -1.61830851516757
C         4.10144298774800      -1.69845257475536       1.91007281216766
C         3.49519203935831      -0.64259783019202       2.80796557125415
O         3.69194785792621      -0.62064097452182       3.99037805063579
O         2.69616793315262       0.28195962577417       2.24774925477833
H         4.75570949150157      -2.32610684120989       2.51118873119828
H         3.31271881088223      -2.31045544602548       1.47704912667204
H         4.67026078629206      -1.23538874370874       1.10696858252575
