34
C8H15F2N3O4S2 optimized with DFTB in AMS.
N         0.14629840617290      -0.96560940794375       0.49520738418408
N         2.13274631159206      -0.57763248432037       1.23347072962141
C        -1.22750692083969      -0.76737494765201       0.04034074217620
C        -1.28468537356598      -0.43211707815415      -1.45414910956272
C         0.96568456985840      -0.00986731093912       0.93345091158502
C         0.81257421178861      -2.16000022249238       0.49122954524912
C         3.32705134146179       0.10800046644144       1.73316807306210
C         2.06445678623008      -1.91497506155618       0.96167857401625
C        -0.76120465353025       0.96708717683038      -1.76150359020681
C         3.47175131215457       1.49075066231546       1.11398945838868
H        -1.66618143708214       0.03745352727571       0.63789332677012
H        -1.76991249904490      -1.69479575611008       0.24057546638153
H        -0.70810894130119      -1.17404605604011      -2.01098002942365
H        -2.33180117725155      -0.51057385967331      -1.76085734257657
H         0.71300811131128       1.02962705671738       1.04361880429385
H         0.35579715183424      -3.06986906603922       0.14446377901460
H         3.25021767243012       0.17037347799395       2.82411152528516
H         4.18297554294013      -0.52025675912963       1.47560268219234
H         2.90798348737959      -2.56880230077092       1.10123991811202
H         0.29307319917282       1.04850105965803      -1.50084841736211
H        -1.32315069618263       1.72145485362456      -1.20818030237327
H        -0.86428071753075       1.16493851460544      -2.82760896459553
H         3.40508689423825       1.42177789156378       0.02962639247369
H         4.45022609190574       1.88788311479351       1.37970807597092
H         2.70432645208457       2.17120672137043       1.48180026614402
N         3.47840458738648      -2.14951468799318      -1.45276124377265
S         4.96425198443208      -1.74021390145107      -1.05614815039523
S         2.56281070400243      -1.16264459028181      -2.27010227668558
F         4.94344648821969      -0.13636995700982      -0.76773857711363
F         3.28203778573448      -0.90921363439517      -3.68679307260244
O         5.21792234014536      -2.31125991180724       0.23399591718658
O         5.93133745943202      -1.90168374156929      -2.08565141156857
O         2.41800879213893       0.15268536957607      -1.70365306455261
O         1.35652128568240      -1.87036240113730      -2.57919790261630
