45
C13H25BF4N2 optimized with ADF in AMS.
N         1.24307973211652       1.93519222324579      -0.31114181770796
N        -0.89545323398013       2.29164705249741      -0.30905963099647
C         2.60642630424726       1.60876824976957      -0.77017784756060
C        -2.29889015067336       2.33430414310352      -0.75966087555236
C         3.15270487881862       0.38540261383131      -0.03946119141281
C        -2.81925123913221       0.93985865990019      -1.09169338754568
C         2.29409596682035      -0.85158807196588      -0.27489411411224
C        -2.61570642179512      -0.07441042477935       0.02839575609207
C         0.15697182812581       2.00790483504971      -1.09222117716167
C         0.87428194164067       2.15691897192119       1.00025226488726
C        -0.47261471767571       2.37730473270570       1.00112785734005
C         2.80917553459076      -2.10489834124961       0.42286205433324
C        -3.02348874156065      -1.48245883579161      -0.39937020248091
C         1.90712650779925      -3.30446926233723       0.13643095279269
C        -2.74312945099887      -2.52368655792331       0.68005881527934
H         3.22934380418952       2.50320215735637      -0.60976840763497
H         2.51884197895880       1.40042438299137      -1.84608106478199
H        -2.34510034256784       2.99834380956167      -1.63568418672375
H        -2.86313462288665       2.80282546993226       0.06102730312384
H         3.25527974223395       0.59592242225709       1.04152072566086
H         4.17747217965854       0.22010129166868      -0.41673366487530
H        -3.89194377807548       1.04324615018555      -1.33382220253730
H        -2.30927989945593       0.58576287878250      -2.00051847825578
H         2.21499729612299      -1.02924219381043      -1.35934546532958
H         1.26011354283368      -0.65688132940115       0.05866077876673
H        -3.17376980593102       0.22861439730240       0.93645001250025
H        -1.54526856129398      -0.10539895044653       0.29864333377247
H         0.10254737256754       1.81639833031299      -2.16625548579337
H         1.58959194486077       2.12890524430078       1.81198993991747
H        -1.16198397766501       2.57553379370330       1.81245680301163
H         2.86992628986052      -1.92956517113687       1.51376782039382
H         3.83885986895877      -2.32078789653148       0.08280914024919
H        -4.09585963957870      -1.49202151479826      -0.66729532156118
H        -2.45589567464225      -1.73429225068786      -1.31117243682038
H         1.85125403257647      -3.49555088847549      -0.94704151048699
H         0.87960141968401      -3.10737963513503       0.48231217289733
H         2.26889423403499      -4.21772081779863       0.63196936226126
H        -3.29806101124314      -2.30330753537629       1.60754850068711
H        -1.66824731245498      -2.54355756980149       0.92437621638271
H        -3.02755625231501      -3.53303275438530       0.34667949485475
B         0.11102133905956      -0.26637106556566      -3.40723733669194
F        -0.07093034878413      -1.24274644702020      -4.37879786574629
F        -0.69514307601441       0.90590600128490      -3.68125520674132
F         1.47608483336046       0.17356935659539      -3.34566610099362
F        -0.26599639539524      -0.74537802414198      -2.11213746409960
