37
C9H17F2N3O4S2 optimized with ADF in AMS.
N         1.88508322842262       1.10111051170139       0.32198051176244
N         0.30533303467575       0.04056874192836      -0.72460714050632
C         3.19124605126194       1.35990897021519       0.94936545348396
C        -0.50058602078497      -1.05901993617385      -1.28268371746975
C         1.45879234067618      -0.10926671674594      -0.06095994315252
C         4.22351604082057       1.80446505802789      -0.08541818544994
C        -1.42473813945765      -1.68963619246868      -0.24351324024634
C         0.98627760464142       2.05316432802055      -0.11677007989289
C        -0.01322623447907       1.38387897485128      -0.76439001751734
C         4.46070554760529       0.76388279442799      -1.17645738989608
C        -0.68456868721077      -2.43092881274816       0.86682498483580
H         3.49673784728896       0.41817481362147       1.42785334304554
H         3.03094945872955       2.11745166754944       1.73110613381254
H         0.20572169102211      -1.79727804161926      -1.69065059432923
H        -1.06857148163224      -0.62754018808294      -2.11996642585112
H         1.98957920246957      -1.03727092218069       0.11148586739764
H         3.91025130698692       2.76910405730540      -0.52378160815191
H         5.15759899068300       1.99991722419570       0.46931380081532
H        -2.08856781197788      -0.91231949963089       0.17603043503655
H        -2.06941727590244      -2.39457160895768      -0.79552871760516
H         1.13821832171345       3.11069733778296       0.06108756324864
H        -0.91374433349373       1.74147921059663      -1.24868061930894
H         3.55218940486014       0.58012490431505      -1.77016949522631
H         4.77919811454379      -0.20171753139648      -0.75447338678503
H         5.24127722454407       1.10737108708982      -1.87085122864667
H        -0.07238590751761      -1.75133204367252       1.47987135597800
H        -0.02605470303761      -3.21046101733515       0.45346473917123
H        -1.40051889333048      -2.91832329588154       1.54449512545897
N         2.92734358007374      -3.99538627651611       0.05125644328744
S         4.10467996668683      -3.25058597824907       0.84713417888420
S         2.55109141079326      -3.55639914461837      -1.44262194214014
F         3.24907044494132      -1.89318855624145       1.47652276608158
F         3.71409461829266      -4.25190149330837      -2.36252106292111
O         4.41392380245140      -4.00147200983427       2.04085148239720
O         5.13793389868956      -2.61254096238312       0.05092911973535
O         2.67736987076348      -2.12896714574963      -1.73952517133642
O         1.31970616338687      -4.22827123543494      -1.81264244049917
