66
C18H28F18NP optimized with ForceField in AMS.
N        -0.00701802746386       0.02457839791277      -0.00304017974058
C        -0.84682418565452       0.66660441592539       1.06943557141702
C        -0.86269309569104      -0.60402063177107      -1.07133336115537
C         0.83423329898620      -1.05143276950155       0.63178951592623
C         0.84658659392080       1.08858887480818      -0.64187852088998
C        -1.92536589497323      -0.23892961190624       1.71733234438057
C        -1.93099988419639       0.31978074024232      -1.71271182491500
C         1.90239719961034      -1.70350117830633      -0.28323955188742
C         1.91373007496629       1.73981126904941       0.27455717630061
C        -2.74187416157102       0.54384347564576       2.74313711208412
C        -2.75838105624576      -0.44402980813720      -2.74368312217020
C         2.70803187154480      -2.74866704019948       0.48544153081049
C         2.74611935662950       2.75741984061533      -0.50236044562506
H        -1.34341045045252       1.58008182051781       0.67848836424197
H        -0.20030295292552       1.01984209223002       1.90159359072856
H        -1.37225156620247      -1.51241797789294      -0.67961042412726
H        -0.22526870217242      -0.96607286523697      -1.90688037110712
H         0.18619076180535      -1.88034572167295       0.99046160956498
H         1.34261995307132      -0.66394169380434       1.54257351212299
H         0.20829287796632       1.92027355896706      -1.00939023144591
H         1.35491674785828       0.68968467684512      -1.54767528190344
H        -2.63315137088736      -0.63605375389478       0.96316102932416
H        -1.45496258335240      -1.09354408733299       2.24465818751909
H        -2.63253668529545       0.72127092520945      -0.95491626174140
H        -1.45191895547665       1.17155577043830      -2.23589745064215
H         1.42470173116964      -2.21546903810138      -1.14286314718588
H         2.61842658551735      -0.95232566300452      -0.67169815388594
H         1.43269947899472       2.27649905599797       1.11732186721599
H         2.61166955159434       0.98478070504688       0.68746395362827
H        -3.50387601086033      -0.12267432968438       3.19984696636434
H        -2.08202665444231       0.93097798967515       3.54867292419013
H        -3.26276260604697       1.39499460946351       2.25443591921907
H        -3.51396056709034       0.23521225782279      -3.19234227520360
H        -2.10451053610031      -0.83152591112987      -3.55404263667963
H        -3.28755054113815      -1.29380708506569      -2.26197894491048
H         3.46271025375672      -3.20742572153206      -0.18795715530525
H         3.23756854161705      -2.27643317273315       1.34031946884293
H         2.03954745633522      -3.55033049459371       0.86581155485165
H         3.49541670803321       3.22027488484705       0.17409271565861
H         3.28279900310516       2.25988009755684      -1.33805908446883
H         2.09634290870663       3.55984936398594      -0.91148795652917
P        -2.94624447365459       5.31381636958437      -0.37906762508982
F        -2.00859303441695       5.62677548869499      -1.78923228880550
F        -2.67170708927764       3.73217320549460       0.24454856327820
F        -3.13633420624903       7.00882700028435      -0.60666802505358
C        -1.17482503429722       5.45178243760967       0.39604593769181
C        -3.86373655241130       4.45929959105009      -1.85521659606988
C        -4.39054767478345       5.71215311996667       0.84049446220088
C        -0.42426293599386       6.79840583398099       0.22231870888887
C        -5.10700326019785       3.61004814532383      -1.51594755557113
C        -4.03542737917567       6.47036033487093       2.13311787260703
F        -0.36212675139495       4.47658841455663      -0.16680536504159
F        -1.23375172990535       5.18692692643154       1.75040133097186
F        -2.98831464254976       3.59751926865118      -2.50975036150955
F        -4.27204592455345       5.43271320541974      -2.75690758105969
F        -4.96320730541237       4.52206370351067       1.25183151294010
F        -5.37171499578954       6.43992371936462       0.18173543126352
F         0.77309494211915       6.72972876205825       0.91283214114402
F        -1.13962910630226       7.86086645249097       0.73073748087479
F        -0.12674568909064       7.05117050929472      -1.10453044531781
F        -5.52136682682156       2.95397656295864      -2.66188495864018
F        -4.82254738776662       2.65034052934597      -0.56257671632912
F        -6.15913428324126       4.39689572569645      -1.09193694331498
F        -3.30567849919134       5.66959763553540       2.98953390732456
F        -5.20858792251896       6.81036607187905       2.78387277856639
F        -3.34661813727376       7.63539135564425       1.87800838947868
