55
C15H32F6NP optimized with ADF in AMS.
N        -0.73038143845652       0.78436577389375      -0.30610507186971
C        -1.39602991516641       1.79368700920000       0.60788850469389
C        -1.54474440988032       0.67608608548275      -1.58625194980636
C         0.64613924687934       1.30253112508436      -0.71979154999173
C        -0.62418970582773      -0.55382719055077       0.41284667402403
C        -2.86123943464801       1.48860702187816       0.88907140508158
C        -2.99990339536024       0.32481000794795      -1.33145349433850
C        -3.65988273769707       1.34818664599444      -0.40666915816759
C         1.70008334220260       1.34391586380875       0.37014524223588
C         0.03984067300783      -1.66383806071375      -0.37886602184286
C         2.97783962345730       1.97691509107549      -0.19503264324172
C         0.16378415131934      -2.93263279992279       0.46923297838022
C         4.12288260244654       1.98534415527187       0.81529882835707
C         0.85552497219112      -4.05980013694692      -0.29960841454885
C         5.39568949964247       2.60259138663274       0.24069722406656
C         1.00716855823965      -5.33253387132196       0.52847587271909
H        -1.30329604944100       2.76233834582111       0.09041538931016
H        -0.80324758385806       1.83634684030408       1.53138038367551
H        -1.02230372008350      -0.03309714199303      -2.24158583021074
H        -1.46735947992606       1.67058483232374      -2.05606883416792
H         0.46205088061793       2.31042516085544      -1.12383970801008
H         0.97994014970994       0.67444213644940      -1.55379062628069
H        -1.64614575412124      -0.83791217630507       0.69564978510670
H        -0.07371637611315      -0.34361088181140       1.34293514749254
H        -3.25178773117411       2.31841434974951       1.50198839886805
H        -2.96149845296612       0.58103039211618       1.50797421873080
H        -3.09387272051719      -0.69431936042557      -0.91812679814428
H        -3.50299712602457       0.30234623840501      -2.31207709852906
H        -3.69471816655562       2.32764531458625      -0.91965648865737
H        -4.70181482987545       1.06508934047668      -0.18715724715509
H         1.36258235315476       1.92210122295435       1.24877871268948
H         1.94145466148833       0.32261762734721       0.70800110804761
H        -0.53779355357969      -1.89452805318864      -1.28761058540642
H         1.03760235298569      -1.36365080071022      -0.73077402950906
H         2.76460805557711       3.01289387634312      -0.51775161416890
H         3.27909634955873       1.41778241137926      -1.09642134874175
H         0.73880965233483      -2.71529876415448       1.38986872229281
H        -0.83622607815045      -3.27390245226877       0.80046840123273
H         4.32930259674688       0.94728942184082       1.13395973856631
H         3.81697833296158       2.53826042510397       1.72339769807294
H         1.84455433799869      -3.70816864037020      -0.64184590190388
H         0.28253962373628      -4.27669942464090      -1.21885308934625
H         6.21098309361308       2.59628453887279       0.98054103477812
H         5.73352556502996       2.04397265247856      -0.64609955361730
H         5.22500991948026       3.64681402807868      -0.06702156336108
H         1.50840251140344      -6.12156575278078      -0.05258904611098
H         1.60747105042439      -5.15040666985479       1.43507470114780
H         0.02679016369987      -5.72158268750672       0.84982242786497
P         2.27280860841479      -0.65765241051351      -3.74977272513548
F         1.83709684081259      -0.52188270603280      -5.32128720440066
F         3.85074446194729      -0.41273265552344      -4.10649817190539
F         2.05112887394499       0.98316853450429      -3.52978157117416
F         2.66363480960733      -0.77252679457190      -2.11097174813383
F         0.65052922943396      -0.87784826242493      -3.32479821500217
F         2.43974171055364      -2.28377099242739      -3.88606339975501
