24
C4H12F6NP optimized with ForceField in AMS.
N         0.00271854055749      -0.00024683523201       0.00016583221501
C        -0.90270777131074      -1.11715650521582       0.34810362272318
C         0.65978587812380       0.49990815493974       1.22776342461425
C        -0.77606912516475       1.09252342192486      -0.62347415765866
C         1.03034579297492      -0.47750371690045      -0.95123333894833
H        -0.34268478252869      -1.94928306914531       0.83047865251981
H        -1.69667582682019      -0.78296349504989       1.05317727507623
H        -1.39758118896000      -1.52506414425842      -0.55966571889323
H         1.35104651000810       1.34091830867069       0.99606720079284
H        -0.09299040590781       0.86671264144716       1.96125748222319
H         1.25193891027799      -0.30474763956594       1.71878694406038
H        -0.11679433198121       1.94868765752511      -0.89123684979613
H        -1.27907328999148       0.74389880343835      -1.55333166292612
H        -1.56085183115833       1.46937583800798       0.07011302802311
H         1.72937713242788       0.34336405467344      -1.22788221965343
H         1.63008433048586      -1.30406155545460      -0.50844171395360
H         0.56137520759662      -0.85770538348864      -1.88669495467717
P        -3.55509115081781      -1.58067801433602      -3.89618487951109
F        -3.81415880399074      -1.82838255202659      -5.57629743840800
F        -2.12311793188355      -2.52886233090258      -3.94456675177545
F        -2.62435741587161      -0.17536148115287      -4.22813508198526
F        -3.34678659215719      -1.32163161626386      -2.21233358449105
F        -4.98208898914028      -0.62681835501602      -3.83018339988747
F        -4.47096295836827      -2.99143697261832      -3.54671456128301
