46
C14H26F3NO2 optimized with ADF in AMS.
N        -0.73715448095278       0.58773062867662      -0.27133110963368
C        -1.30455323868134      -0.04437293677725      -1.53879170102427
C        -1.90257978538081       0.99127227379220       0.62560365583737
C         0.17962285115031      -0.35023287617568       0.47386014546873
C        -0.01564963946051       1.85382066058212      -0.71479794149243
C        -2.22821695921420      -1.21416249412204      -1.25720893540558
C        -2.84846978539971      -0.16104718599675       0.92606906437090
C        -3.38888029546174      -0.77424008648809      -0.36411562935314
C         1.41594930958108      -0.78450213600942      -0.29347931182188
C         0.70541812851338       2.61781681358970       0.38147996689414
C         2.27418596145025      -1.72927350273362       0.54950979243457
C         1.26920069683911       3.91544967863309      -0.20264204654083
C         3.52183257322806      -2.18418280991317      -0.20280450095260
H        -0.45014992647777      -0.30983042253208      -2.17355240372539
H        -1.86980921072534       0.78401094372897      -2.00882187799718
H        -2.42787175883203       1.78339636925209       0.06618675940145
H        -1.46410837321379       1.40292687886387       1.54518482844281
H        -0.41770468193589      -1.22862031803011       0.75015981983738
H         0.46032162472746       0.16388904887693       1.40590847379573
H        -0.80746275809580       2.45962930109690      -1.18962982215461
H         0.68322584854977       1.54867341613474      -1.50705832954689
H        -1.69241688279425      -2.07161685509103      -0.80988523633406
H        -2.60426232572511      -1.55604848544745      -2.23587911169445
H        -3.66889635571711       0.25556194873945       1.53412325771215
H        -2.36185973156192      -0.92976675070704       1.55207609804624
H        -3.97758943496713      -0.01034638165568      -0.90205936640018
H        -4.05698847956343      -1.62114619077405      -0.14139204537616
H         2.02287024659272       0.08972818696176      -0.58164524426678
H         1.12807880361389      -1.30102804602774      -1.22405655608636
H         0.01346893528002       2.86858914684858       1.20167515127959
H         1.52815642725962       2.02263519901320       0.81408095003563
H         1.67181910040813      -2.60820250121474       0.84236602236831
H         2.56581126942647      -1.22102146427057       1.48649626159714
H         1.81499087946207       4.48523944227624       0.56291336494726
H         1.96204739878666       3.70750092682962      -1.03251154152260
H         0.45873196562811       4.54882232565125      -0.59301635127215
H         4.14576528066371      -1.32150545769339      -0.48552491747072
H         3.24935261088011      -2.71825965142139      -1.12695782948545
H         4.13673820925153      -2.86003953644845       0.40955740385718
C        -2.95327384463979       3.10905594162585      -3.02358227112890
O        -3.71022793035853       4.03393940378620      -3.32500201287836
O        -2.74972312369786       2.50811408526472      -1.91874594777707
C        -2.05686420348932       2.53307331774425      -4.18659841861437
F        -0.70810422577549       2.57108885973548      -3.86123454259489
F        -2.18459434856533       3.18176954781933      -5.36833340878325
F        -2.33785463180551       1.20026267370659      -4.43306631239236
