46
C14H12F18NP optimized with ForceField in AMS.
N        -0.45816594330851       0.06556418862196      -0.40230341747481
C         0.96515329766500       0.06037652862459      -0.76541304825180
C         1.83822471983993      -0.07190976296651       0.48762483949138
C         3.32123999426504      -0.08329504371103       0.13022290516176
C        -1.17100286236986       1.23312799625847      -0.44165440424378
C        -1.06549180772992      -1.10421185736085      -0.03316773545671
C        -2.52575315507311       1.24911233954981      -0.10095174969122
C        -2.41932184731474      -1.12380117418871       0.31038110392509
C        -3.15117708906868       0.06195081086890       0.27636491597223
H         1.16711017058215      -0.77860336546702      -1.46601300496674
H         1.23817677259955       0.99787700204612      -1.29983416218089
H         1.59172972455745      -1.01343511530112       1.02400765255963
H         1.63543019542209       0.78301884159991       1.16874893674323
H         3.55313155842114      -0.95218970106852      -0.52195586924288
H         3.92604938977303      -0.16358353306680       1.05802360277349
H         3.59973744796152       0.85533594386817      -0.39459067615286
H        -0.69436464027010       2.16266486409958      -0.72942851993429
H        -0.50276618156484      -2.02937628116224      -0.00201170663282
H        -3.08464677058802       2.17556166167441      -0.12870861378173
H        -2.89560125145692      -2.05110918450246       0.60152425681293
H        -4.20027116914398       0.06134293166037       0.54250860526233
P        -0.12013975650127      -4.36445980720009      -4.33824179833337
F        -0.50457377276394      -3.19509027571985      -5.54598695073829
F        -0.24417831668228      -5.93499910633706      -5.03655668464185
F         0.21161637206429      -2.79508344987095      -3.71531477990285
C         1.47175766809311      -4.52808202229276      -5.42280859005775
C        -2.04943840573509      -4.42599695841073      -4.48345690056638
C         0.16605462163803      -4.82575518497204      -2.49531162780669
C         2.43124322408253      -3.31827164323796      -5.40081414835809
C        -2.79191357666829      -5.52767001688979      -3.68480997907520
C         1.57054647748753      -4.59682735772520      -1.90608469875424
F         1.09814882344775      -4.71599390562494      -6.74864830669748
F         2.19541840601156      -5.64974818282821      -5.05014156911966
F        -2.40721224326432      -4.61111413053631      -5.81559769523868
F        -2.56297482461214      -3.20575557872804      -4.07046892777625
F        -0.12872786530269      -6.16791212857365      -2.33602121327916
F        -0.71091309398124      -4.09648494054605      -1.71052207518002
F         3.47122788632763      -3.55604235371152      -6.28207496585847
F         2.97400778464635      -3.12827673810578      -4.14926609428844
F         1.79388927424839      -2.15722396982481      -5.79801255764861
F        -4.11523372322903      -5.54994651133965      -4.08988558633071
F        -2.26367826939835      -6.78415453410650      -3.91238691212078
F        -2.78635185813673      -5.26956060617736      -2.32965173286987
F         2.53857870176301      -5.26911905751451      -2.61985259322466
F         1.59149680059536      -5.08579306768642      -0.61174845004329
F         1.87650315987156      -3.25100345121684      -1.84521566918072
