59
C17H34F3NO3S optimized with ForceField in AMS.
N        -0.01805488902068       1.99332105548781       0.01132774582860
C        -0.69310213870115       2.89710130419154      -0.97069612856744
C         0.63506206058123       2.91027043289493       0.99609772122423
C        -1.03342449484465       1.14658163497842       0.71890959091203
C         1.01796850682310       1.17631057197966      -0.70030956855053
C        -0.21267718072566       4.31362034352109      -0.72122672187585
C         0.13306968377370       4.31866307606919       0.74064398854989
C        -1.76929613147614       0.12839198009844      -0.18578612328572
C         1.77591126094704       0.16801211836228       0.19615702930776
C        -2.87334416050571      -0.59213170721131       0.59888114447179
C         2.89044821230541      -0.52674302371388      -0.59671859539926
C        -3.62152278325615      -1.59810506159261      -0.28407460025168
C         3.65480508456925      -1.52864300645642       0.27684843816620
C        -4.68880647909386      -2.34607195098845       0.52390071189138
C         4.72778610713109      -2.25864634040253      -0.53957650649210
C        -5.44238870988049      -3.34755069826670      -0.34612402694351
C         5.49570821985937      -3.25679913134443       0.32184393402444
H        -0.50201945517881       2.61714641869623      -2.03211731027977
H        -1.80005830782308       2.90527059324917      -0.84385035384929
H         0.44119699492332       2.62886556086248       2.05645569284247
H         1.74265107284731       2.93674542715226       0.87793093513880
H        -0.56064874576700       0.59041276785592       1.55830309505618
H        -1.79522616460138       1.80520062774975       1.19784664251729
H         0.55901058056074       0.61533026469272      -1.54414951245050
H         1.76563417424565       1.85724603297563      -1.16994929911601
H         0.69826060803463       4.51688403248547      -1.32714427406954
H        -0.99662517057468       5.06573907920214      -0.95884911976511
H        -0.78105664283050       4.51022914943877       1.34548193082514
H         0.90474936419245       5.08403521890456       0.97592561459162
H        -2.22244493544719       0.63957906410913      -1.06090903503400
H        -1.05711299668131      -0.63669239312830      -0.55852646174755
H         2.22187708886451       0.68290432044233       1.07280445036463
H         1.08002341796369      -0.61316951711391       0.56610942320449
H        -2.41654875824657      -1.12785451887788       1.46038588149541
H        -3.59635242977017       0.15648864270175       0.99155771580341
H         3.60056561982996       0.23694607294916      -0.98428971003329
H         2.44092207860119      -1.06225445350755      -1.46219571366274
H        -4.10763229313373      -1.05758050524885      -1.12629193952711
H        -2.89838024996547      -2.33154815963949      -0.70452818615911
H         4.13722229086009      -0.98724273683459       1.12060199625465
H         2.94270100060081      -2.27383268866365       0.69567830369915
H        -5.41598103246952      -1.61949705145020       0.94789360336691
H        -4.20714553319152      -2.89255692892031       1.36406830277003
H         4.24949759452750      -2.80560204156299      -1.38137307002209
H         5.44464747751615      -1.52075324633500      -0.96151672150732
H        -5.96110245878603      -2.82353528297057      -1.17694408511160
H        -6.20122802165009      -3.87624092410177       0.26863908596230
H        -4.74046776939201      -4.09907032888867      -0.76638087485570
H         4.80393773615995      -4.01931296781270       0.73924677524691
H         6.25896125215232      -3.77259783808013      -0.29832789145874
H         6.01042113845931      -2.73215818593464       1.15476313139668
S         4.28227519234523       2.81432065085722      -4.05739184328055
O         4.84541949832537       3.89064691047854      -4.99714082290646
O         4.30531062195430       3.50278633202967      -2.68489862331333
O         5.43266464314016       1.80177152084296      -3.95933097755881
C         2.67977061691650       2.11982049324581      -4.55043869913159
F         2.77190757315892       1.60951744775790      -5.83068737605066
F         1.71728686349506       3.11035228497271      -4.51828020047701
F         2.32752977834827       1.10780481391191      -3.68006764647846
