58
C16H22F18NP optimized with ForceField in AMS.
N        -1.43982214710593       0.32171062356785       0.02108809069387
C        -1.76992495569590      -0.98845382287691      -0.58306692996464
C        -2.49730592954517       0.52592446466737       1.04178842709007
C        -0.09706682088746       0.31376548537463       0.67652336817059
C        -3.28290364945344      -1.13625720441087      -0.54459582516536
C        -3.74050320959378      -0.23812464305881       0.59055158375145
C        -1.52837696912468       1.40083402214769      -0.99895503209369
C         1.08247310193940       0.10173420198965      -0.29853931780678
C         2.40394837274412      -0.05810820641050       0.46370183736095
C         3.57619854488874      -0.24665426126095      -0.50635980451373
C         4.88720113529591      -0.46010220323695       0.24386582610682
H        -1.33037000042734      -1.82278667800672       0.01160285722267
H        -1.39269634792266      -1.08711085518143      -1.62608342889943
H        -2.73182977272496       1.60411987623956       1.20019707664350
H        -2.19207247678263       0.11788794783932       2.03339554752090
H        -0.05628179554324      -0.49086909447404       1.44710377386472
H         0.06275698703191       1.27511280356404       1.21670434876670
H        -3.57999164940780      -2.19403151327205      -0.37349917518290
H        -3.72009316860420      -0.78583762353622      -1.50559304270998
H        -4.52428494654547       0.46602079265859       0.23517735515686
H        -4.15195128679687      -0.84451705146266       1.42766635590154
H        -0.90559822692969       1.17304090273493      -1.89077054909463
H        -2.57232402658055       1.53176197660356      -1.36142861304254
H        -1.19035713478802       2.37366504906569      -0.57768049963634
H         0.91198922525364      -0.80796931190125      -0.91212343750596
H         1.17408599796502       0.97809912589621      -0.97443151992529
H         2.33663176451065      -0.94194093217977       1.13585153078354
H         2.58355633785154       0.84660850702668       1.08587659836049
H         3.67398648024155       0.65207736611567      -1.15386363197101
H         3.38803294016852      -1.12928911246525      -1.15585963463186
H         5.11786847584484       0.42194334200805       0.87851298510062
H         5.71183484218576      -0.59934154561753      -0.48638011274312
H         4.82353697767791      -1.36653602062130       0.88294323876031
P        12.17503019132686       1.43507162003061       0.45971531643217
F        12.03288982702663       2.75797953121012      -0.63687451659098
F        11.97465558166511      -0.01248180961950      -0.45267540152573
F        12.54324293970037       2.90581309579884       1.27405094637275
C        13.86021030711464       1.22793472423742      -0.46329435031002
C        10.27089140841861       1.57093497173772       0.13132848226961
C        12.22762335786265       0.74412343881672       2.25095802509732
C        14.91002737216497       2.33249427624952      -0.21284617619007
C         9.35968006815754       0.45277011559773       0.70172885520766
C        13.56980875055562       0.78575184299170       3.00410902460592
F        13.62935733755872       1.21007801325233      -1.83404841303044
F        14.43309615151479       0.00880300944208      -0.14074903463056
F        10.03659734042254       1.59168726183438      -1.24023895715015
F         9.82008041886581       2.77232881238427       0.65547230766732
F        11.81916484386677      -0.57731431339570       2.21258394736741
F        11.32854273912378       1.45449508391203       3.02862410640649
F        16.05928764507035       2.02657301391260      -0.92026330781717
F        15.24809785076739       2.42520926439581       1.11792294652566
F        14.45464645244944       3.56341294379968      -0.64906023411417
F         8.07806813841835       0.64223065334034       0.21612029378666
F         9.77387146216616      -0.80681847481793       0.31187799347998
F         9.28082268423826       0.49944387429823       2.07760844160474
F        14.56060556532463       0.11049741337808       2.32494202746270
F        13.40663832008670       0.16354178478555       4.22925670968967
F        13.96323445269356       2.08741763530109       3.25109686601487
