55
C15H32F6NP optimized with DFTB in AMS.
N        -1.01020426963710       0.84260171350048       0.07776051593859
C        -1.42164984461788       1.81521778663488       1.15148428115466
C        -2.04250854796777       0.85546432328762      -1.00875073780103
C         0.27904692817896       1.32101636235387      -0.54244725112852
C        -0.84504856056939      -0.52365939744737       0.68226283926876
C        -2.81922348931901       1.55189698310953       1.69530309639520
C        -3.44426328074070       0.53762736275024      -0.50065190822438
C        -3.86129795827659       1.53337905160133       0.58039565475758
C         1.48880096643529       1.32667513920467       0.38908505974229
C        -0.38567946369112      -1.61936296452472      -0.27276933489669
C         2.73049404313376       1.77348927353938      -0.39046808160094
C        -0.17977017333012      -2.90418066589816       0.54211049967050
C         3.95952400552234       1.78474860184879       0.52479514435848
C         0.33977624007410      -4.04208449390083      -0.34014881004776
C         5.21104511435182       2.22404476080449      -0.23174149525125
C         0.55415467372918      -5.31544220667269       0.47610630637144
H        -1.36900095439814       2.81436626383311       0.70984390229734
H        -0.69689259911738       1.73705290560280       1.96168924335516
H        -1.73523097064555       0.13781881978488      -1.77179915523927
H        -2.02825007501862       1.85733727141559      -1.44792145499938
H         0.08992735791866       2.33387534551974      -0.90939933831459
H         0.47353312967458       0.68022027404091      -1.40639280676301
H        -1.79950501417387      -0.80333705005559       1.12737542068218
H        -0.12410398311551      -0.41828740214500       1.48971854777764
H        -3.04378774415377       2.35502620222974       2.40145834572533
H        -2.83714060144302       0.61310772252370       2.25225468983227
H        -3.49124638789143      -0.48374965524848      -0.11525979259608
H        -4.12435778062346       0.60282261285250      -1.35412750483221
H        -3.95357351145062       2.53196110005391       0.14005793532688
H        -4.83466684311783       1.24940075565118       0.98652709792992
H         1.32540549928213       2.00956043378954       1.22362631554294
H         1.66672870704036       0.33187456962187       0.80109828818831
H        -1.12826663178995      -1.79821197730420      -1.05684907495565
H         0.55828965113890      -1.34880989472273      -0.75331957546424
H         2.56620578985939       2.77592328204114      -0.80120547365556
H         2.90250540115175       1.09117623870855      -1.23051672085642
H         0.53371542791477      -2.70624529234462       1.34730693759030
H        -1.12922526889768      -3.19711219769870       1.00132952585193
H         4.11302842091095       0.78206372308694       0.93550858879146
H         3.78006985509767       2.46558248445345       1.36251870800277
H         1.28656667851011      -3.74130363818857      -0.80181392407434
H        -0.37702242492509      -4.23907481823376      -1.14531791998877
H         6.06950572104580       2.22373883502473       0.43961803355582
H         5.41726306217747       1.54424898665493      -1.05976803164735
H         5.08366900782773       3.23074846420858      -0.63248322833564
H         0.92818386072802      -6.11269704566857      -0.16635107516444
H         1.27872093562301      -5.13967993489695       1.27165329826523
H        -0.38362607023652      -5.64224557910378       0.92691250432818
P         0.41094753509245      -0.11367304353488       4.23704838835243
F        -0.19670006504320       0.92450578483495       5.33708341166973
F        -1.09902420077163      -0.17672320729379       3.48593984333261
F         0.77820266875812       1.18597325658108       3.22925935613958
F         0.99426571238029      -1.12689208696351       3.04023751345683
F         1.89515646782401      -0.02587530604106       4.89317028833491
F         0.01195585798132      -1.40139887486111       5.14471086265031
