48
C12H26F2N2O4S2 optimized with ForceField in AMS.
N        -1.63208661066289      -0.29592760763177      -0.16425335636946
C        -1.91069384131811       1.12095793186832       0.22370961083569
C        -2.64442093240342      -1.21042051732613       0.45401099564118
C        -0.29289613595594      -0.71548643087624       0.36959120042213
C        -3.35393412952946       1.56675275484269      -0.06886887252193
C        -4.10785071118837      -0.80811595484971       0.19170068143550
C        -4.35825798828535       0.63819262077191       0.60530868975511
C        -1.64682525273740      -0.45338320516047      -1.64388815810275
C         0.92859717220072       0.06028992624598      -0.18487770770400
C         2.22905448523684      -0.46459527364591       0.43925111674086
C         3.45427669494484       0.26224458270079      -0.12912712471650
C         4.74817937293694      -0.28388531262757       0.48667065763695
C         5.97497500424893       0.42117363723898      -0.08463101957572
H        -1.23991750626170       1.82163887261430      -0.31898122278272
H        -1.72179906874951       1.26747037948202       1.31211046357030
H        -2.51154093992364      -1.24116426989800       1.56073985000132
H        -2.50136788792332      -2.25407546708237       0.09044002825027
H        -0.27880572260960      -0.61282153420583       1.47976300977037
H        -0.12682512177454      -1.79777619484813       0.15809437989307
H        -3.49938020556370       2.59787898779555       0.32003627387343
H        -3.53907387971814       1.60022125319804      -1.16356994748652
H        -4.38255047769094      -0.95683209555180      -0.87298727391134
H        -4.77381298786443      -1.47086446881757       0.78577476591349
H        -4.27031573913920       0.73146496537232       1.71020136793733
H        -5.38969265561468       0.93344192294895       0.31548542054080
H        -1.01412838077562       0.31166315122137      -2.13627085328061
H        -1.28379022911279      -1.46134806814737      -1.94444948909159
H        -2.65804169604390      -0.32503548764527      -2.07534360702271
H         1.00220680854453      -0.06752186330119      -1.28455144497766
H         0.84381045494284       1.14101601133618       0.05077606524646
H         2.19330775479637      -0.31768252970756       1.54137984278423
H         2.32222045170803      -1.55359849865802       0.23165482333469
H         3.37249699852490       1.35010459550035       0.08880095090699
H         3.48609120165399       0.12422719697973      -1.23262935408811
H         4.83150819436927      -1.37300954671815       0.27847180135532
H         4.72916800775202      -0.13711835283928       1.58866904665783
H         6.03332037185914       0.26568603035114      -1.18306826323829
H         5.93030172290017       1.51003085544264       0.13059261927086
H         6.89328917654390       0.00488944234154       0.38109154186676
N        -0.42886589427729       1.65747691953580      -6.86922819253718
S        -0.79046850855426       2.57380554717979      -8.17481425169727
S        -0.97288068946200       2.04823723927813      -5.37666671995481
F         0.05702813201324       4.01484341801308      -8.08773679255216
F        -2.57465011378134       1.58185401650228      -5.23586702216089
O        -0.40247560690645       1.83930420392590      -9.42600212373955
O        -2.26285994694572       2.87378163759699      -8.19910969874969
O        -0.87460330673992       3.53225710754947      -5.15989983198247
O        -0.15068320706304       1.33130527070412      -4.34563661549704
