18
C4H12ClN optimized with DFTB in AMS.
N         0.07547068546436      -0.10455351222886       0.03537362695768
C        -1.03681127676247      -1.03612818214136       0.34971908004841
C         0.83813274880292       0.20431534004920       1.27628567017384
C        -0.47218350001717       1.15954924909694      -0.53045637167095
C         0.99031346367637      -0.73076250281386      -0.95893494300322
H        -0.62387241979084      -1.95754645853998       0.75662245349162
H        -1.69437928376219      -0.56970378739753       1.08124236208635
H        -1.59014997669090      -1.24951717876060      -0.56324035137825
H         1.65210878653577       0.88272930656162       1.00315942023243
H         0.17035732777445       0.67923788704017       1.99254307239017
H         1.23395557186975      -0.72244602097434       1.68743930711649
H         0.37483683239009       1.81908110038279      -0.74368145014979
H        -1.01766215776489       0.92960907135705      -1.44375943334897
H        -1.13743634199603       1.61437560858081       0.20099611435868
H         1.79239391224540      -0.01601894996634      -1.16690323060805
H         1.39655833392499      -1.64752152170603      -0.53590740803905
H         0.42830671306332      -0.95009188797470      -1.86487761403564
Cl        2.60615018513706       2.01113926683501      -0.68236114712177
