51
C13H24F6N2O4S2 optimized with DFTB in AMS.
N        -0.14410644355690      -0.08792060295769       0.16539526159203
C        -0.72942082965201       0.71878289407472       1.29559900413855
C        -0.92321984940683       0.20589806267573      -1.08324549262246
C        -0.18214571594863      -1.55017624559533       0.51461154590469
C         1.26737126357845       0.37885189201208      -0.08011098864621
C        -2.22073586688499       0.48136491606275       1.49210460568554
C        -2.41440518522335      -0.07276760395412      -0.93389041441790
C        -3.00269154335328       0.75087989913242       0.21009451605534
C         0.44447423580522      -2.49874477395178      -0.50186760368878
C         2.25395413591277       0.09699463484211       1.05213145381794
C         0.25997323217234      -3.92899985279955       0.01001222549954
C         3.60267113289380       0.73112253768131       0.71535177354668
H        -0.19380492435950       0.45283910068850       2.20761350098573
H        -0.54128557312278       1.77037659142199       1.06100411967098
H        -0.76577947766447       1.26429324858994      -1.31104840883017
H        -0.49634648649855      -0.39029093803078      -1.89184633382190
H         0.32091057843775      -1.65283825386851       1.47633535054701
H        -1.22727079435797      -1.82157916562019       0.66163488219780
H         1.60752574445511      -0.10147372229627      -1.00132042783005
H         1.21019390734121       1.45624039350496      -0.26046032086643
H        -2.40237026351302      -0.53735927940494       1.83988260881884
H        -2.55108978225556       1.16166448958950       2.28110845832783
H        -2.89344281410279       0.19950220740737      -1.87818450112125
H        -2.59287020773749      -1.13724449271309      -0.76514850411239
H        -4.05157867214040       0.48285852997635       0.35382961847693
H        -2.95278956761954       1.81565442036853      -0.04196733612154
H        -0.03580494763844      -2.39848842638561      -1.47964546237698
H         1.51122894920878      -2.29272122310965      -0.62284404342287
H         1.89061528833777       0.50897483239520       1.99520600334017
H         2.38909812581968      -0.97813257187097       1.18096453229806
H         0.72489759473786      -4.63105835850595      -0.68092062968394
H        -0.79998634321371      -4.16729601075996       0.09608221168809
H         0.71813514332805      -4.04315649416280       0.99220704900140
H         4.30798124800451       0.52406367951901       1.51892697426622
H         3.50466919518483       1.81198710091701       0.60786081264742
H         4.00147295648265       0.32133395789821      -0.21351906897218
N        -0.71075422867112      -1.46917308825942       3.48873997947177
S         0.48992734712004      -1.18334542533710       4.51348229134841
S        -1.39146173754411      -2.92171595224089       3.42880691938647
C         1.92434428153238      -2.34475198487103       4.15979775101551
C        -2.36375204207209      -3.22499988618868       5.00135538769694
O         1.01116716517019       0.10607178846168       4.10636015415550
O         0.16853024533407      -1.38808177274926       5.90025966601239
O        -0.45217401337728      -4.01412083934649       3.32378178619793
O        -2.40144054064381      -2.80843219379242       2.39507068608943
F         3.04894107219742      -1.73619800554182       4.50422289546411
F         1.98210079605146      -2.59237685912923       2.84671858386759
F         1.83048616505530      -3.47937661575434       4.81291649024066
F        -3.32195350506781      -4.09924990623877       4.74151310283359
F        -2.91489594618838      -2.09271564680908       5.40526395064057
F        -1.58657044474680      -3.70369468137363       5.94880693400732
