41
C11H22F3NO3S optimized with DFTB in AMS.
N        -1.42414657947930       0.43597603976153       0.24629605876877
C        -1.82738630271805      -0.72400714356007      -0.60674897397665
C        -2.45754076188037       0.45842891597637       1.33242695203943
C        -0.06558955457278       0.24432499681329       0.85891105746857
C        -3.35423543766586      -0.69407437506355      -0.62360258812329
C        -3.76440597215064       0.05283011468605       0.65664189631907
C        -1.49456603711309       1.70130879745022      -0.53772160416467
C         1.08899126752236       0.35522187464128      -0.13113821561730
C         2.40607848970806       0.08208187826832       0.60616550335429
C         3.60390340633149       0.22986391671594      -0.33674706340561
C         4.91794619505436      -0.02337108830768       0.39922913595448
H        -1.45721616731842      -1.63393568502745      -0.12917138933528
H        -1.37987882912158      -0.62724795537063      -1.59584197152208
H        -2.48322640893945       1.45021261316579       1.78202857262245
H        -2.16015940974701      -0.27363958031130       2.08617773712839
H        -0.06969245338015      -0.74176391889925       1.33129327034980
H         0.03933038567613       1.00153606530923       1.63579944671535
H        -3.74997127579412      -1.71072873471233      -0.64072972595541
H        -3.71981058913974      -0.17235914636659      -1.51014350238826
H        -4.36846149481145       0.92942792576363       0.41573912638561
H        -4.34634757467611      -0.58640828938326       1.32224971733617
H        -0.89423677060517       1.60001218010582      -1.43837059722458
H        -2.53001169228433       1.89241127266542      -0.80856629931149
H        -1.11690062092558       2.51597568034139       0.07359912247656
H         0.96199067856734      -0.35923056069694      -0.95042193324382
H         1.12575834369932       1.36300921804445      -0.55130977993782
H         2.38761318848676      -0.92930232709704       1.02626409955248
H         2.50362696286476       0.79001999041978       1.43491135722682
H         3.61037334575748       1.24068594177474      -0.75695751838409
H         3.50463180094467      -0.47842218971993      -1.16670289416774
H         5.04020181657093       0.68865862720723       1.21580381858518
H         5.75604330037048       0.08843932765493      -0.28841061347521
H         4.93780975247236      -1.03306155209487       0.81162030820966
S         0.20372292369923       5.10449919839360       3.16138554222710
O         1.60771147768227       4.99016216685895       3.45786469946033
O        -0.14363329081689       5.94057531245802       2.04010329932811
O        -0.68643444572023       5.15487308536886       4.29149201136144
C        -0.17590209783310       3.39298301758172       2.44899435981067
F         0.05834021150208       2.36021740056047       3.27285476502710
F         0.53702480549441       3.13613514716215       1.32843990423171
F        -1.47297599641108       3.26869764346172       2.07600809749377
