48
C12H22F6N2O4S2 optimized with ADF in AMS.
N         1.79157565926384       0.02062237681516       0.32138101672356
C         1.67895745999417       1.47876555203941       0.75792628174590
C         0.47927604978566      -0.41677196559473      -0.29170894649528
C         2.90046733473699      -0.04728239536396      -0.72363443812224
C         0.49403327382693       1.73519475760777       1.67202008916684
C        -0.70997030660361      -0.19730335812017       0.62893020319904
C        -0.82001438085266       1.26651845000665       1.05075206583849
C         2.16193688574012      -0.84291305726686       1.49085215735607
C         3.15351152657169      -1.41595727377072      -1.33080436434904
C         4.32780956163245      -1.35025700703831      -2.32404755083042
C         5.69092903956576      -1.14483748922766      -1.66735948554525
H         1.59103952218760       2.05852808972477      -0.17366159958254
H         2.62283926762159       1.73937138147703       1.25514279043837
H         0.58774417134177      -1.47357125323941      -0.56783417577543
H         0.36913761191679       0.17803359790355      -1.21373807828714
H         3.79978429158730       0.32046817507120      -0.21176365632695
H         2.61562128541141       0.67443092077720      -1.50343609503616
H         0.47689083298295       2.82017349824676       1.86666233027011
H         0.65752362586010       1.25934911355125       2.65335477635414
H        -0.63329468998893      -0.85162265923784       1.51425529260696
H        -1.61111767659802      -0.52102401581184       0.08202666036790
H        -1.65369460512384       1.39962580699277       1.75809226407999
H        -1.04869060437795       1.88401179989173       0.16245817763948
H         1.48053680766211      -0.64406032613363       2.32226004161831
H         2.08442894619740      -1.89300230993346       1.18757001268083
H         3.18987659603851      -0.59455156861847       1.78591224526925
H         2.25958676814150      -1.77735439285885      -1.86584755348525
H         3.40243042298938      -2.15013436008829      -0.54642871078744
H         4.13463233821052      -0.54810914958439      -3.05933158212783
H         4.32940038391742      -2.29499222114418      -2.89412165215685
H         5.89111068090564      -1.93565564650052      -0.92688870337858
H         5.78250362557932      -0.17970488221686      -1.15120300843010
H         6.48781949104170      -1.18371631458598      -2.42554120854498
N         5.24377436929396       2.87850822310950       1.35327882015138
S         6.15648357292961       3.16133784451932       0.03869963632524
S         5.21035639961837       1.50973705572550       2.16416777222187
C         4.81709250277558       3.38752334123949      -1.29926418631948
C         6.68488309971187       1.56572444920885       3.34214817319594
O         6.72553550895030       4.49338472995530       0.14628475792907
O         6.94989809873243       2.03888299268112      -0.44591582231969
O         5.41027257572065       0.27179940226873       1.39655236088395
O         4.04714930652315       1.55263697763733       3.05757044206476
F         4.52248216591269       2.19720672206654      -1.90205519448881
F         5.27173796750292       4.22593602330559      -2.25274142411558
F         3.65453633210997       3.89168392056829      -0.80541781881484
F         6.73360682051707       0.40098716104450       4.03735129371995
F         6.56250171823263       2.58499534500662       4.21805045042958
F         7.83770497420319       1.71135321099422       2.65656023124288
