40
C12H22F3NO2 optimized with DFTB in AMS.
N        -0.12527032580354       0.29200594306209       0.29400673690690
C        -0.68012279368359       0.63170192805486      -1.05577758734613
C        -0.63167512477128      -1.05784339878231       0.70431624788688
C         1.38105897399214       0.22896617007167       0.13659272084445
C        -2.20164522276490       0.59404075341741      -1.09248392381494
C        -2.15065566281902      -1.19256802441492       0.64346584458288
C        -0.50341936880393       1.31650009441051       1.33926058647877
C        -2.69746417994373      -0.80342862841152      -0.72792197803847
C         2.14484660398325      -0.40300822690530       1.29892362787671
C        -0.39753234209822       2.76435666503201       0.89038530630364
C         3.64273424913305      -0.31663069880783       1.00119490553692
H        -0.28165357554381      -0.10459468897157      -1.75956658534947
H        -0.29923766335572       1.61580091150556      -1.33103011788108
H        -0.28876644009250      -1.23853557744654       1.72420588586138
H        -0.16716637459190      -1.78838854298160       0.03598240540814
H         1.72675284747674       1.25706748637520      -0.00529721114300
H         1.57486395180686      -0.34132103600054      -0.77628696387067
H        -2.51754413108744       0.85171158511085      -2.10664494152276
H        -2.62623783665776       1.33458682929132      -0.41065134907272
H        -2.62171524964664      -0.58074828179183       1.41726033242060
H        -2.39131009000509      -2.23702511247685       0.85906230525480
H        -1.52457695361007       1.10202580843843       1.65839996170854
H         0.16972502777910       1.15947907591941       2.18409111340184
H        -3.78953455960878      -0.81987181315183      -0.70753284443839
H        -2.35877702721334      -1.52240225760935      -1.48102583681836
H         1.93483472805755       0.12678981290449       2.23034869459822
H         1.86590574225026      -1.45394599292860       1.42360310390476
H        -0.45767108790669       3.37512941373984       1.79058991471474
H         0.56185630491936       2.97010199717256       0.41981170206659
H        -1.20743527175524       3.04882936888633       0.21921191999603
H         4.20231085217984      -0.74010762948176       1.83422524486690
H         3.88732352489637      -0.87265127681402       0.09458728063508
H         3.94571569531374       0.72131607430038       0.86981832554455
C         2.69172145358596       2.77764800589093       2.10924898948088
O         1.81566534829783       2.36012678811802       2.86732487232233
O         2.72285632128135       2.85258979048690       0.87751759948498
C         4.04727664917425       3.24249193624450       2.83004694173362
F         4.97952283590045       2.26741858319284       2.71908181612167
F         3.89469851696629       3.48293257953320       4.13971864174826
F         4.57702942976881       4.34781262631704       2.28407465650492
