47
C13H26F3NO3S optimized with DFTB in AMS.
N        -0.47533500681374       0.96434489852995       0.01854616801102
C        -1.18410711681040       0.55584025484556      -1.24254765883061
C        -1.49756717477144       1.41603349791145       1.02694286099871
C         0.33146027700213      -0.15239099681310       0.61782035296551
C         0.42751234770871       2.11903227603703      -0.35218973621567
C        -2.21994797000856      -0.53375731723641      -1.00875892153770
C        -2.60419364685522       0.39567014936277       1.27418756676104
C        -3.27733330587399      -0.03633759986470      -0.02622274404745
C         1.27419114532953      -0.87697873234116      -0.34139331163290
C         0.96316197273090       2.93647413740015       0.81928136861668
C         2.13389234247270      -1.87054909633157       0.45078424772529
C         1.93792013812211       3.98333123455949       0.28044356588753
C         3.06929363726191      -2.64616526408642      -0.47410571298656
H        -0.42702527345967       0.24284617074921      -1.96316569126232
H        -1.68135971349033       1.44942549151797      -1.62602134753518
H        -1.92915542605655       2.34381198473158       0.65044891872706
H        -0.96891120434234       1.61810000120052       1.96024211733684
H        -0.36694102517409      -0.87625307941271       1.04110832096887
H         0.90362408684527       0.28470509878566       1.44003734184479
H        -0.14878079711114       2.77441028437947      -1.00558209121726
H         1.25299793386847       1.70266448958892      -0.93328233521554
H        -1.75325964177738      -1.45374830156965      -0.64294095221240
H        -2.68380573678679      -0.75464477715525      -1.97349621810999
H        -3.33775848698995       0.88062560941203       1.92359189589140
H        -2.21834580091209      -0.47858560015710       1.80885169833159
H        -3.80474481175186       0.81584179905744      -0.46342800298224
H        -4.00222114610558      -0.82769834492030       0.17832237216327
H         1.92945841970182      -0.17138319581685      -0.85767150655623
H         0.70254798210136      -1.42366872432153      -1.09575421939072
H         0.14009086366655       3.45661614852248       1.31412941190415
H         1.47126474323163       2.30143808579991       1.55170321858359
H         1.48232633286033      -2.57079497406194       0.98389842996684
H         2.72384213384284      -1.32699514628927       1.19603842263562
H         2.32511368900779       4.58125972452175       1.10459570988629
H         2.77555308391923       3.50738420694811      -0.23154205207273
H         1.42551177162470       4.64394315488532      -0.41897996572182
H         3.73899925499671      -1.96443311078833      -0.99941370928547
H         2.49696193664814      -3.20945843701160      -1.21194427876250
H         3.66988728534917      -3.34470225653692       0.10791675946008
S        -2.40651761716391       3.97953372807680      -1.24194105046602
O        -1.63915305219248       4.45155580145514      -0.09697015058388
O        -3.44688978686782       3.02034495906648      -0.89651743845406
O        -1.58169283867320       3.56483800091322      -2.36918818597147
C        -3.32032500347360       5.46472468566447      -1.84993993432546
F        -2.47042953394314       6.42626509519683      -2.18842478104916
F        -4.12844627011663       5.93194343721654      -0.90683601317893
F        -4.05062399277013       5.15583415597861      -2.91354028086186
