53
C17H32N2O2 optimized with DFTB in AMS.
N         2.88028674160927       0.90993107641216      -0.61595710396746
N         2.80186987815035      -1.25124038916973      -0.73083051117464
C         1.54752286663656       2.95953512176218      -0.36475050813340
C         2.86971020624981       2.24917298642973      -0.05322054390912
C         1.38618033551864      -2.92535772424484       0.38681988209614
C         2.69094975896490      -2.65582596227327      -0.36141526551644
C         0.34173948618135       2.18331871933169       0.17361073432060
C         0.16090056414921      -2.51167624901529      -0.43626361310151
C        -0.97338789781148       2.91665807971138      -0.10502739785280
C        -1.12800081197111      -2.61464442381834       0.38406436996835
C         2.68484153396985      -0.21099385453498       0.12541975842757
C         3.38519971759477       0.54950113438244      -1.85674802067269
C         3.34056429997921      -0.79491522642709      -1.92425868709228
C        -2.17108855123407       2.10464392756405       0.39797238321150
C        -2.34151477578936      -2.15975878101884      -0.43269577619586
C        -3.49181407801742       2.81864336543710       0.11680920959479
C        -3.62449889609279      -2.21029647839573       0.39503634081079
H         1.57940900597114       3.95603644340832       0.08569781038383
H         1.45099257585115       3.08048540429721      -1.44842926192801
H         1.39103723678148      -2.38678305367277       1.33923858748800
H         1.33734324991338      -3.99465043377526       0.61208556989382
H         3.70548634001294       2.81299076759885      -0.47742814283300
H         3.01998353377939       2.15390242065574       1.02600229005399
H         3.55640613969440      -2.91635632948198       0.25841551203817
H         2.72994953827046      -3.23998065869063      -1.28500132893069
H         0.45567131751582       2.03298167282454       1.25274017287535
H         0.30852090854480       1.19619056024145      -0.30034137319554
H         0.08557692478210      -3.14756613309638      -1.32501489675805
H         0.28638559493099      -1.47808094576331      -0.77838599096065
H        -0.95953094730114       3.89460626440441       0.38810623922752
H        -1.07417712227000       3.08722325222599      -1.18250090658787
H        -1.03765585273119      -1.98970676187662       1.27957895397771
H        -1.27326160077670      -3.64934140581579       0.71253722710681
H         2.01089310476410      -0.22616624074556       0.96788447542287
H         3.70699760983571       1.28801153229692      -2.56953224386794
H         3.61631555789519      -1.47320821169768      -2.71195259324202
H        -2.17640979596107       1.12569626305984      -0.09408848283896
H        -2.07006046411431       1.93514076159325       1.47536410824650
H        -2.44965799066645      -2.80095744157480      -1.31407916872833
H        -2.17782968154977      -1.13480757053624      -0.78445401342297
H        -3.51548689776477       3.78913680638708       0.61447425253863
H        -3.62111916350519       2.97526370586342      -0.95508849021903
H        -4.32586454971221       2.21970079061726       0.48338647774689
H        -4.47208795978166      -1.88242783135489      -0.20738968899245
H        -3.54345807624632      -1.55684359694279       1.26499587634761
H        -3.81653009541184      -3.22673759864691       0.74146610385537
C         6.43590249436156      -0.33104002076507       1.99232204774693
C         5.24570607783034      -0.81318757427290       1.14310639602277
O         5.39700005879398      -1.74668266370136       0.36985741927189
O         4.17938441335985      -0.13866144671404       1.35376635562465
H         7.21639303956964      -1.08836258841166       1.99700417639399
H         6.82136886758748       0.58584805689146       1.54786343475949
H         6.10765678785896      -0.11720706226174       3.00736450276915
