39
C11H21BF4N2 optimized with ADF in AMS.
N        -0.54037772240740       1.17168485238404       0.08524523640003
N        -0.75388325734117      -0.85999038671901       0.82914536324843
C         1.12327424295767       2.68581694941064      -0.99907494673555
C         1.98773671881311       1.60485331585400      -1.66640212299455
C        -0.34497308408274       2.30692956527572      -0.82221341619658
C         2.71169089091237       0.67026033627656      -0.69672838529975
C         3.54327469914636      -0.38551926995202      -1.42382424637095
C        -0.70597960781179      -0.10921443412277      -0.27913417905443
C        -0.47345938315188       1.23015119244403       1.46148888265916
C        -0.60075070401871      -0.04580226475603       1.92810860644496
C        -0.87249252930242      -2.33280856906920       0.85083374803073
C         4.35440837529470      -1.26083165931969      -0.47142122538684
C        -1.85580299134225      -2.80141063609485       1.90713829354137
H         1.12173777267610       3.60750465300450      -1.60610436879368
H         1.55133738796604       2.95652744598903      -0.01774515104267
H         2.74499656921515       2.10212152480190      -2.29810515244764
H         1.36627332330429       1.01345849148202      -2.36910632674313
H        -0.92865725459267       3.14607956748125      -0.41291976099227
H        -0.79219506857767       2.02765707748101      -1.78834615145941
H         2.01804668248944       0.17347935689409       0.00089298048085
H         3.37755436745866       1.27495925941212      -0.05230602484869
H         4.21562896478260       0.11883546168204      -2.14445066272859
H         2.86819380956269      -1.02144501229073      -2.02913429413594
H        -0.77813713885846      -0.47392953484517      -1.29516333091987
H        -0.30268544454745       2.16067261690341       1.98768058096889
H        -0.49710493588403      -0.46037792636392       2.92449769817028
H        -1.19349193218708      -2.62482576840346      -0.16060233513139
H         0.14275745958795      -2.71931889081128       1.04592675447355
H         3.69855419525755      -1.79057652406131       0.23358182181393
H         5.05099614671936      -0.64821315107336       0.12295000460322
H         4.94627104317446      -2.00584948843145      -1.02552874212907
H        -1.45326370593629      -2.61302735222504       2.91162389930361
H        -1.98735514659571      -3.88847500845896       1.80689773982708
H        -2.83720313647225      -2.31621739108387       1.79386188497541
B         2.10337597105867      -1.80386891033537       2.73360291696662
F         0.89196042123687      -2.00364791250237       3.49289006733636
F         2.12598962927655      -0.44974423782815       2.27966008658396
F         2.04008977543970      -2.66656305153742       1.58183483468481
F         3.22763913087968      -2.09216067919097       3.50394114589772
