56
C16H19F18N2P optimized with DFTB in AMS.
N         1.73224631527998      -1.84772893537783       0.39871912606650
N        -0.17989397748805      -1.65662676640269       1.36432343951578
C         3.15109894292735      -1.69424633081038       0.09714874448349
C         3.35911589135323      -0.62150690663260      -0.97290939143329
C        -1.20808314361722      -1.27799949623291       2.32744693535878
C         1.09083999087458      -1.26282576590832       1.40703325109988
C         2.93866425139696       0.76955021595751      -0.48836037619608
C         0.85459896461049      -2.62725238799867      -0.30298188067491
C        -0.35382936339801      -2.50705579897407       0.30695830516073
C        -2.05059344502160      -0.12015269158633       1.78874118620486
C         3.18504709250326       1.82843866039534      -1.56100547100982
C        -1.22942809986247       1.15428525577918       1.60670059368540
H         3.66349043984800      -1.43389697226080       1.02553798356774
H         3.52042705115672      -2.66133253961998      -0.25041576842445
H         2.79425170985446      -0.89005260019533      -1.87117348873459
H         4.42159539740500      -0.61465784809800      -1.23141811378682
H        -0.70455158526660      -1.00123560370036       3.25628159410635
H        -1.83042339014867      -2.15719502395515       2.50894106841772
H         1.52983564884620      -0.62956932402283       2.15765810808698
H         1.87429189773488       0.75884569512019      -0.22717078289792
H         3.50213453422999       1.02449046091490       0.41511585121751
H         1.16158293414630      -3.21027848516593      -1.15335097492858
H        -1.30211180064745      -2.96736674715443       0.09247326461296
H        -2.50031858129483      -0.41242251620674       0.83497663924614
H        -2.85806920888152       0.06222568444001       2.50286796378264
H         2.61530667042024       1.59914668852779      -2.46241106603251
H         4.24350087391612       1.87037513189685      -1.81954707198490
H         2.87738302656590       2.80736680835021      -1.19389325886181
H        -0.43026507336837       0.99662047138888       0.88074741633210
H        -0.78442791465268       1.46090863166531       2.55370604611003
H        -1.87003329937780       1.95805827219856       1.24570807363575
P         3.12269733464774      -3.71816274510840       3.96446779648622
F         4.69394724461704      -3.23833058506577       4.19260353854666
F         2.80446991338813      -2.34102732379888       2.98047928538624
F         3.38375132584919      -5.08641470712205       4.87525378175846
C         3.81146448917878      -4.55173018684931       2.32250536456519
C         2.67397594427087      -2.59799643220804       5.55975290404577
C         1.18662560795576      -4.30758979092109       3.78471759820110
C         4.65124104523553      -5.85182465326167       2.40966640635970
C         1.43765038672172      -1.64101733039842       5.60766324065030
C         0.58143066038329      -5.44761290845602       2.91509274220667
F         4.60494573559707      -3.65391001532642       1.69543182105849
F         2.78911399512878      -4.78662914740911       1.46616280776148
F         3.70993973501296      -1.76324970365636       5.76334311008687
F         2.57423562617343      -3.37427889065669       6.64920335593705
F         0.44623299583696      -3.21405563564489       3.44003191117909
F         0.84171497435994      -4.61180403744957       5.05048201335176
F         5.06748048486787      -6.20076345901067       1.18667390327048
F         3.94872770640367      -6.86481355888881       2.90191386430869
F         5.72328791661362      -5.66995281913023       3.16978024992366
F         1.60463288411664      -0.75943188915197       6.59284318382523
F         1.29861192334627      -0.92587754459104       4.47325601552421
F         0.28668945693275      -2.26335498225757       5.82531162098108
F         0.31366560710316      -5.00140275697061       1.67820631819477
F        -0.57866264906149      -5.85100547106787       3.43529699941238
F         1.37410653047590      -6.50421276762987       2.81793523805284
