39
C11H14F6N2O4S2 optimized with ForceField in AMS.
N         1.10683838070619      -0.01578716207167       0.53950577682666
C        -1.25349281639927       0.00314034778450      -0.13777034679701
C        -0.27348980636953      -0.01791257014210       1.03937635364952
C        -2.70714148612581      -0.00113826868308       0.34480303065542
C        -3.67460383297244       0.01819153400710      -0.83511510131560
C         1.74274062664738       1.17277535262949       0.30380099268112
C         1.73021408466920      -1.20217092306561       0.26204220240147
C         3.03546453960421       1.19084216445672      -0.22579249027518
C         3.02134351985202      -1.21739525400775      -0.27154959613888
C         3.67355451090651      -0.01152945418644      -0.51912499486289
H        -1.07325964006594      -0.88977328076192      -0.77601426353409
H        -1.06884158644263       0.91487980041010      -0.74750079134801
H        -0.45469436665684      -0.92067215898612       1.66520073414974
H        -0.44863313018640       0.86659333154928       1.69237240754307
H        -2.89798911113262      -0.91268237296371       0.95215127192758
H        -2.89435789397566       0.89271139664270       0.97896145141298
H        -4.71944594069398       0.01436069535998      -0.46003002787148
H        -3.51933573597178       0.93298853889395      -1.44606721179443
H        -3.52252861200555      -0.87849126958213      -1.47314759631992
H         1.24759931788293       2.11394682319780       0.51317460726396
H         1.22590798500169      -2.14452643530189       0.43991736804106
H         3.53844297979550       2.12744048067730      -0.41395921680830
H         3.50873497441111      -2.15655236794221      -0.49763749831880
H         4.67051608956697      -0.00741281420430      -0.94022376993182
N         3.82077199097774       7.50020526387494      -0.13606301397094
S         5.31038862140659       8.18379842505396      -0.16804426985869
S         3.20209234042843       6.66317232818744      -1.40296585003936
C         5.16404786126488       9.86885539427611      -0.72546098144834
C         3.42111167443227       4.92356186844584      -1.10498040542173
O         5.88715665632703       8.18072056463465       1.21946616635184
O         6.22291730767365       7.42571214650198      -1.09242995214250
O         3.88832823571816       7.04513722865155      -2.68548150315859
O         1.73145637606955       6.94988421677383      -1.51532158786160
F         6.41016713527986      10.46643459041487      -0.73087831787895
F         4.32647388541669      10.56474126056428       0.12575469313076
F         4.63913431175251       9.89248999624279      -2.00345497391983
F         2.91149087014052       4.20103485974163      -2.16758665070249
F         2.75314591069855       4.57170351211685       0.05267614576583
F         4.76666806606831       4.64206077230929      -0.96201659038157
