30
C8H13F3N2O3S optimized with DFTB in AMS.
N         0.21642523404594      -0.42567770819699       0.13027800266184
N        -1.56481167944360       0.59611734915049       0.77319949062984
C         1.50161033258878      -0.70188206910398      -0.50204829055023
C         2.66217555736717      -0.17032343722646       0.34891667976057
C        -0.50188751995337       0.68695949524254      -0.02159240926729
C        -0.37846750941891      -1.21584501265327       1.07579967177557
C        -1.50528974493157      -0.57254262392909       1.47795050418221
C         2.75716667640891       1.35171481648760       0.31989291710770
C        -2.56788925684983       1.62780830905173       0.97439326404622
H         1.49810599851789      -0.23839378595507      -1.49323671233656
H         1.58139815801205      -1.78604634274412      -0.61792027745942
H         2.53174612158150      -0.50811485208134       1.37971309714827
H         3.58275218884630      -0.60931462233680      -0.04725157678031
H        -0.27380496650524       1.50606468814136      -0.68069465974534
H         0.05102587795251      -2.14997086794578       1.39091717237852
H        -2.23694726138799      -0.82356836836567       2.22469445941259
H         1.87587272518836       1.79416609188796       0.78051550367457
H         2.84794225784366       1.71654776386114      -0.70478039412423
H         3.63230013134429       1.66924338087887       0.88535293515254
H        -2.32798334917305       2.48305746864736       0.34653643048617
H        -3.55048399373743       1.23192721278401       0.71772039510190
H        -2.54453466060198       1.91646682727322       2.02664737403408
S         0.19714684817624       1.39927495151603       3.64934484491367
O        -1.23181337945976       1.11608863750643       3.59094111048114
O         0.98655529586527       0.59724495240752       2.72400805877846
O         0.74716404428509       1.55474259812065       4.96686215773050
C         0.30025627753442       3.09140727730413       2.87805176559070
F        -0.48709553854405       3.97338894106930       3.47915300572700
F        -0.10655979014391       3.01308554079462       1.58768521385787
F         1.53861791969231       3.56699630791363       2.86491638343144
