30
C8H20ClN optimized with DFTB in AMS.
N        -0.01137325166974      -0.02446392078031      -0.03261114696717
C        -0.83090956520240      -0.17210629516241       1.22014715269898
C        -0.88486740657746       0.13629975954492      -1.25324904909900
C         0.82200805723900      -1.26947173477697      -0.20696408529316
C         0.85227780836432       1.20656678671284       0.10689378279703
C        -1.88818762752578      -1.26664450378063       1.18441720775456
C        -1.86470483483632       1.29594298997372      -1.19374474883529
C         1.83381837610601      -1.23319422071720      -1.34217978518926
C         1.93363483627724       1.11920618033558       1.17055989967197
H        -0.13264534914676      -0.37421910862795       2.03539770285511
H        -1.30702134726040       0.79249173345183       1.40921956615864
H        -0.20544179296496       0.30770850300362      -2.09624086808854
H        -1.41414774294823      -0.80790076296131      -1.39794021649730
H         1.33121811043374      -1.44704544102510       0.74392173215694
H         0.12181227808739      -2.09098560942261      -0.37663106158710
H         1.29640218103843       1.39347247495431      -0.88061716585343
H         0.17894138068897       2.03269564499585       0.34373655565938
H        -2.38350207517621      -1.27458443461946       2.15552478747065
H        -2.64149096402482      -1.08050370499489       0.42182400423238
H        -1.45091509096425      -2.24950796906945       1.01877003623062
H        -2.45223405347188       1.26335087328417      -2.11128189388681
H        -2.54857669001108       1.23411178304462      -0.34804756229596
H        -1.34389090443670       2.25118934365142      -1.16577187619710
H         2.35488896699567      -2.19099099900731      -1.33938544201223
H         1.35628877958200      -1.09895680884474      -2.30941615305222
H         2.56571450955462      -0.43999666221264      -1.21456611663944
H         2.44826996572013       2.08008890930109       1.17963321865168
H         1.52752055780742       0.94290791742113       2.16651069389517
H         2.66864592553422       0.34891037151061       0.94574942264278
Cl        1.41139911418786       1.47369048061729      -3.04201498898187
