35
C9H18F3NO3S optimized with ADF in AMS.
N         0.49357502086610      -0.17129237197779       0.06834624772050
C        -0.92401057142837      -0.17457627880178      -0.46110900766701
C         0.79577058774791      -1.65692217275643       0.19949641316470
C        -1.63071018801266      -1.29100365255903       0.30740418924401
C        -0.49872727529162      -2.26495148126551       0.73382497168794
C         1.42444368386349       0.51678362858341      -0.90192852816324
C         0.54499822380293       0.49379000122712       1.41425543759666
C         2.89429834185485       0.46991114409473      -0.52046727484191
C         3.73884358113503       1.09534532121390      -1.62974041882388
H        -0.84779920360514      -0.41379117672060      -1.53319045581297
H        -1.35821763130118       0.82801216178770      -0.34371274423822
H         1.66448585399728      -1.77587511667948       0.86242909190230
H         1.03040440239734      -2.00177271397606      -0.81954755392067
H        -2.38056351819289      -1.77060295037114      -0.33808638084765
H        -2.16291534214310      -0.89355082508124       1.18361070130390
H        -0.42803243475047      -2.35907924525452       1.82693608852271
H        -0.63924004491455      -3.27249968448940       0.31833103246062
H         1.06720749628854       1.55722616006640      -0.98815051483305
H         1.26280611275554       0.01951602589590      -1.87270341391680
H         0.30306366259404       1.55632774696113       1.27650941730160
H        -0.17579219941888       0.00775813306690       2.08037535289124
H         1.54692125156939       0.34011962232073       1.83466827628040
H         3.06806353392431       1.00082267611303       0.42745037358017
H         3.20941592605373      -0.56933283043124      -0.34248973526674
H         4.80428576798412       1.06000729652285      -1.35869575762940
H         3.61752601034822       0.55484835900421      -2.58183658894688
H         3.46974432512153       2.14984564505683      -1.79864393461355
S         2.66926709975014      -1.86133532274248       3.39576587217767
O         3.35218272874772      -1.56874015199231       4.65275870010490
O         3.17688156042729      -1.13520081399756       2.19704473337909
O         1.19140687323975      -1.93144095076186       3.43911754625999
C         3.15358596716448      -3.63296841028846       3.01104560021013
F         2.70904934194097      -4.49029949926177       3.96422941072444
F         4.50010264501938      -3.77334988650610       2.91302188471290
F         2.61141224046477      -4.03571403160007       1.81308682159607
