25
C5H9F2N3O4S2 optimized with ADF in AMS.
N         1.76158885897387       0.23482853457674      -0.10354605210445
N        -0.32936963242336       0.16485299778098       0.47583674994640
C         0.82321629518955      -0.51845206038471       0.48305521753612
C         1.20068272849741       1.44069387597375      -0.46459062808625
C        -0.11296323975638       1.39604444754771      -0.10347075204367
C         3.17803141316767      -0.10191850635866      -0.21984196127907
C        -1.59659231388974      -0.29005792001162       1.04174174391518
H         0.99197431838435      -1.47588128158830       0.96119682607962
H         1.78554931526457       2.22879295804551      -0.92149101564185
H        -0.89706616340238       2.13864916422580      -0.17850567218710
H         3.31980369968122      -1.14338010110335       0.08547639857215
H         3.49146715756694       0.03581862142846      -1.26189636978616
H         3.75214742572423       0.53458981656484       0.46587960414797
H        -1.94466872859176       0.46985839357995       1.75241394196770
H        -2.31969653944082      -0.44573124130953       0.23044600380338
H        -1.42179854810757      -1.22057540212753       1.59140018468193
N         2.06196781792799       0.82784844295341       2.93050914151403
S         3.20478378414126      -0.22251726966211       3.36059519412259
S         0.60207540336993       0.75421818675225       3.60334497418775
F         2.71948147595733      -1.63097691247066       2.54329128874274
F         0.83414137547743       1.23662439160514       5.14754264930829
O         4.41602091322038       0.14851789883066       2.65108576401528
O         3.23402404535343      -0.62764021215772       4.74764106027892
O         0.03908436664876      -0.58525816694027       3.71293054668179
O        -0.20428735793431       1.80713114274928       3.00569297872669
