32
C10H16BF4N optimized with DFTB in AMS.
N         1.65110648309784      -0.24531840196332      -0.37271299470446
C        -0.75165678852966      -0.17300151444990       0.18393906488415
C        -2.15926351501278      -0.06097157445494      -0.40326577397389
C         0.29594399835307      -0.20103005253310      -0.93466477049537
C        -3.20454280387333      -0.05041187044782       0.71758534845412
C        -4.62138321932430       0.05084085765665       0.15656697138976
C         2.26544478976584      -1.42787893139204      -0.20371504562924
C         2.18983266103267       0.88906670834612       0.11893677020706
C         3.55014216484225      -1.47510143615244       0.32517411702665
C         3.44564620575399       0.88640909683337       0.67522215018042
C         4.14618116549961      -0.31517182907979       0.77627852606792
H        -0.66926009267650      -1.08440282477959       0.77917931022691
H        -0.54911248834996       0.67421642160174       0.84334047042729
H        -2.34680917276109      -0.90860721575085      -1.07212167075240
H        -2.24358165858731       0.85757004499818      -0.99583581599060
H         0.16372431091171      -1.08210167675512      -1.56805957941003
H         0.22108502611205       0.69546071507570      -1.55796938679989
H        -3.01302115033313       0.79773434438438       1.38251362638770
H        -3.10891464639981      -0.96652237659782       1.30822045801743
H        -4.74112849648561       0.96878480437293      -0.42122565564118
H        -5.34488429848490       0.05724281566270       0.97191569836899
H        -4.83805003268177      -0.79857261804632      -0.49308124551159
H         1.77776778062069      -2.30178173997688      -0.61352263832515
H         1.59510583996161       1.78895167226418       0.02861043944378
H         4.03826659162544      -2.43580990871010       0.42216879812733
H         3.86241790862911       1.81071421515583       1.05275505916658
H         5.13744812881117      -0.33591091078704       1.21222154737804
B         1.01357900430901      -1.23475170412632       2.72243299584195
F        -0.28387838398448      -1.40212257384439       3.14870744891542
F         1.19260831751141      -2.08972410984222       1.54859661141687
F         1.96090708968568      -1.56999353755083       3.65352438998332
F         1.20766747186149       0.09377434658904       2.27678811142211
