46
C14H26F3NO2 optimized with DFTB in AMS.
N         0.44845228212036       0.09596444839131      -0.29750488552337
C        -0.88262233540736      -0.19973708061068      -0.91904893341533
C         0.22489641726079       0.81254114861037       1.00841704995801
C         1.25218864495849      -1.15074025280431      -0.05138792171960
C         1.17067429309086       1.02609634354480      -1.23833392879274
C        -1.78769388116437      -1.02086538374996      -0.00815140656116
C        -0.69860593004309       0.06317962867647       1.95932245998595
C        -2.03365444756267      -0.27719306509080       1.30335318040039
C         1.51413273443556      -2.01316700130909      -1.28006848972925
C         2.58974295776516       1.41267218513148      -0.82196824797071
C         2.43904087515848      -3.16861620921474      -0.87155204801476
C         3.14359533779773       2.43072329320796      -1.81688447373480
C         2.73104234585229      -4.08813358818981      -2.05471466132432
H        -0.70668204647700      -0.71723329463914      -1.86398506239723
H        -1.35351394325196       0.76431404305694      -1.13401401988783
H        -0.19686026250422       1.79129323832172       0.76112036710313
H         1.20482796771948       0.94026543489000       1.47337262495319
H         0.73349034072277      -1.73413002359714       0.70832263242184
H         2.19485943404332      -0.81883851514966       0.38548358955785
H         0.55251199380377       1.92536972462027      -1.31824748672307
H         1.18803702299362       0.54153363423517      -2.21841286848486
H        -1.34785673097388      -2.00166051348204       0.18763901138769
H        -2.73207877262087      -1.17723784471186      -0.53663150911604
H        -0.86298919033263       0.71346228245251       2.82222806358333
H        -0.20695554054132      -0.84212620490543       2.32218310985357
H        -2.59796476973858       0.63985771771611       1.10117395010866
H        -2.62759175178380      -0.90134499201635       1.97483206252694
H         1.99477993639521      -1.43416017885563      -2.07358380366281
H         0.58079429834600      -2.42461932818818      -1.67691351890132
H         2.59449926045406       1.84302934693909       0.18035932838367
H         3.23865103464435       0.53542071717384      -0.80641384199022
H         1.96709130897401      -3.74266665534805      -0.06839068089319
H         3.37688704939573      -2.75921666988822      -0.48435041033311
H         4.15900480629357       2.70067677885066      -1.53024117556084
H         3.16500062967426       2.01453179724054      -2.82517906833476
H         2.53306318710327       3.33481400122011      -1.82514689285618
H         3.22305628983969      -3.53671755153273      -2.85717000536314
H         1.80700283587397      -4.51837689729442      -2.44391672407038
H         3.38577905854454      -4.89992528833065      -1.73881888523652
C         2.85845090333295      -0.59243621643650       2.74760422225300
O         3.13403456979906       0.29446122855908       1.92879049107353
O         1.90971871663577      -1.37547813971290       2.77933911500467
C         3.91912352715378      -0.74633432208967       3.93606728966997
F         3.37140397893025      -1.24637073873055       5.05397750096404
F         4.48621984814621       0.42461431265008       4.26687079978327
F         4.91850575014242      -1.57958060440998       3.58177555072487
