59
C17H36BF4N optimized with ADF in AMS.
N        -0.36657112661430       1.38240370462845      -0.18613240945192
C        -1.13074696464733       1.79244343370726      -1.44057713199827
C        -0.06164307128953       2.61544126906694       0.63714912931632
C        -1.17008467010001       0.39936167853229       0.65072916543431
C         0.93923490820821       0.75451632622647      -0.65437151642488
C        -2.37126124230048       2.61155448870286      -1.13575665879372
C        -1.29491470037013       3.44265056556378       0.96780545018701
C        -2.04194216185871       3.84719153945906      -0.30136747534888
C        -1.40877339658638      -0.94981111067697      -0.00006096055131
C         1.82989015020353       0.17389266326740       0.42982718434371
C        -2.17020871295495      -1.87690524070181       0.94936708464792
C         2.97941479327579      -0.58515197452784      -0.24497042501500
C        -2.33042354749475      -3.27870997281393       0.35969405058749
C         3.90124654168345      -1.27273852205749       0.75785598616251
C        -3.07523928952335      -4.23806348148063       1.28599834996407
C         5.03031813805501      -2.05662029516899       0.09014114687088
C        -3.12103769532005      -5.66477408028485       0.74424683571051
C         5.94408737200472      -2.74395990871433       1.10086661232300
H        -0.41457667304323       2.37621799125007      -2.03946642935571
H        -1.35045365470073       0.87862783904865      -2.01070165047566
H         0.45826689301970       2.27827375060306       1.54427977929313
H         0.64069883155698       3.21060745478754       0.03118496098757
H        -0.61579909910853       0.29124498325729       1.59583780628334
H        -2.12342199985963       0.89116268389241       0.88239721986189
H         0.66997626332633      -0.02217144254713      -1.38207314843638
H         1.46077562545966       1.54500383977875      -1.21541799375739
H        -2.80484330167465       2.90015445862940      -2.10727615657920
H        -3.13560814220396       1.99500382432731      -0.63187373523925
H        -1.96175039023120       2.88799810216232       1.64918121443046
H        -0.95306649113679       4.33249490075057       1.52265852210856
H        -2.95688773773088       4.40566758726322      -0.04704877194265
H        -1.40143916237124       4.52490638679644      -0.89605476659926
H        -1.96296538081174      -0.84398612266404      -0.94525885766494
H        -0.45749964460331      -1.42636630390700      -0.27754204833061
H         1.27133803620553      -0.54171316962820       1.05597088172377
H         2.23756612217974       0.95288588922095       1.09857906466785
H        -3.16680561844854      -1.45439091231241       1.17824680060187
H        -1.62959631246825      -1.95211085679452       1.91247607386162
H         3.56490594483558       0.11159058587328      -0.87194525729601
H         2.54657848720285      -1.33155365730808      -0.93364798603432
H        -2.85458082899243      -3.21173363987825      -0.61065064150756
H        -1.32903729408907      -3.68843524228260       0.13390489931653
H         4.33620293375022      -0.52164495269511       1.44492408099267
H         3.30571593031097      -1.96371538920342       1.38462298891957
H        -2.58630834005637      -4.23830959171325       2.27817133581887
H        -4.10467310636286      -3.86789865278172       1.44568571397975
H         4.59362580088731      -2.80870331661592      -0.59114128612710
H         5.62377073178399      -1.37208647297999      -0.54299850453453
H        -3.68411778682708      -6.33125762476788       1.41574195238514
H        -2.10404097208995      -6.07429030589205       0.63441071510950
H        -3.60055131583265      -5.69614539301208      -0.24701299170684
H         6.41164178626437      -2.00733992722034       1.77415692446163
H         5.37714995908521      -3.45516604680023       1.72311045871116
H         6.74923735135834      -3.30266475540562       0.59955724483362
B        -0.22141073412164      -1.00406079124058      -3.60412158197025
F        -1.59788966128231      -0.80025090825144      -3.22137879291821
F         0.42841631277459      -1.72179183541148      -2.53463805839874
F         0.39754088991457       0.28141574379947      -3.70847810315002
F        -0.13684533563963      -1.71446690765508      -4.79984501868765
