16
C6H8ClN optimized with ForceField in AMS.
N        -0.70182541585982       0.03843022715764      -0.00348882728707
C        -0.01197255755732       1.21877662047936       0.03122212821211
C        -0.03524889173920      -1.15451863923637      -0.05469350014031
C        -2.16611193016922       0.05134792741523      -0.01663686924891
C         1.38503728929920       1.22214546909429       0.04176960277832
C         1.36135924387808      -1.18757048913663      -0.04316890117359
C         2.07290322094268       0.01000098278052       0.00930207496514
H        -0.53903046496927       2.16525040520176       0.05173557093882
H        -0.58149068675942      -2.08815206965918      -0.09977373558043
H        -2.57261532961662      -0.84230521171950       0.50491118862093
H        -2.55909747286625       0.94989491519311       0.50635575841467
H        -2.52871308803409       0.05596392356350      -1.06565258100987
H         1.92916186168177       2.15688195643284       0.07419558323389
H         1.88645341875965      -2.13374227987526      -0.07467089858705
H         3.15489603424917      -0.00073431750050       0.01964047322944
Cl       -0.96291084323933      -4.88464725729079       1.03642154553390
