35
C11H21ClN2 optimized with ForceField in AMS.
N        -1.31413057315624       1.29543218364172      -0.21532475534807
N        -2.70534428700098      -0.40347352422724       0.13611926370166
C         1.06769991126952       1.94781907558919      -0.21014005944935
C         1.57445957342592       0.51330225920677      -0.41809276954675
C        -0.31356604376461       2.15628182363976      -0.84390909119441
C         2.99293163494962       0.33785604329145       0.13440553571810
C         3.46685241602454      -1.11051399439403      -0.03378620417370
C        -1.85377087075175       0.17455819349192      -0.73318873956560
C        -1.83673993060976       1.42758044114287       1.02081244284493
C        -2.70217304657384       0.37442904987828       1.23799600532534
C        -3.40952692679284      -1.67120728342420      -0.03971513299435
C         4.87916211172580      -1.29643390549554       0.51247192862310
C        -4.89402816644916      -1.42616239681601      -0.28175458548676
H         1.78038289102176       2.66211934960345      -0.67769112366151
H         1.01514637887714       2.17507114626762       0.87699299172473
H         1.57107474103870       0.27373640462799      -1.50452378909708
H         0.89466299612635      -0.19582951281212       0.10272400865751
H        -0.61905074695296       3.21909800979854      -0.72866926736167
H        -0.25626157470478       1.94270150369436      -1.93366432222202
H         3.00349585678484       0.60504273254486       1.21450130584047
H         3.68637314200631       1.01905682631888      -0.40689267086237
H         3.45773997648674      -1.38543622979001      -1.11177355564227
H         2.77866669934950      -1.79506335230338       0.50925315124014
H        -1.60744310657495      -0.22820542894784      -1.70826015137239
H        -1.58978657402589       2.21613010995453       1.72047521355886
H        -3.26479030739823       0.17643340726569       2.14161579388835
H        -2.98925534730128      -2.22304723597795      -0.90864360606393
H        -3.27306698266833      -2.30242045563103       0.86500711216965
H         4.90939863301266      -1.04824834626217       1.59518269682185
H         5.59295059385295      -0.64375486565039      -0.03415052430082
H         5.19259890916989      -2.35396419110115       0.38218630344652
H        -5.34384680419863      -0.89468013257146       0.58359597230208
H        -5.41558030351653      -2.39755105258935      -0.41745981773240
H        -5.03181141211779      -0.81515892706852      -1.19940517983318
Cl        7.09124324983630      -2.92808617989547       3.25201490084536
