46
C14H26F3NO2 optimized with DFTB in AMS.
N        -1.78682019286657      -0.02540396522360       0.33926667981502
C        -1.99195448462097      -1.38488125562945      -0.27012174333197
C        -2.85215435734389       0.08331086073665       1.40513302488137
C        -0.42677816540845       0.06843590415296       0.97123792764447
C        -3.49423726278112      -1.60385531391697      -0.23739784979671
C        -3.91428056236602      -0.97239135001703       1.08980944531649
C        -2.00235236898368       1.01635820957568      -0.71889737422660
C         0.72388658324782      -0.12135017293172      -0.01168757338153
C        -1.68149466499235       2.43920478505081      -0.28228863704194
C         2.05584251446592       0.02632051482957       0.73401873992244
C         3.23903008319465      -0.21436489193398      -0.20716532614152
C         4.57055313989962      -0.08611359530604       0.53937063100797
C         5.75656337491102      -0.33164473185932      -0.39161275318619
H        -1.49045770027661      -2.10557426322778       0.37752500816394
H        -1.56068991126395      -1.41183489634678      -1.27033305762863
H        -3.25183091454506       1.09740406530217       1.40722441811235
H        -2.38493936295488      -0.12227201048235       2.36781352692794
H        -0.39437736987480      -0.71557966147996       1.73328891395100
H        -0.36316970661735       1.03942314630757       1.46727434723528
H        -3.72484491155479      -2.66923587427308      -0.26768403874963
H        -3.98551477930331      -1.11705932026529      -1.08465095704852
H        -4.91005129279231      -0.53022986761861       1.03204637677959
H        -3.90218725021496      -1.72776522899987       1.87851157140115
H        -1.38155246525476       0.74846367085119      -1.57683459664173
H        -3.05082105711464       0.94700239271367      -1.01818593794635
H         0.67073881027155      -1.11952944657122      -0.45325603251067
H         0.67737252827189       0.61480607099875      -0.82016208036705
H        -2.01911054777145       3.11312508607721      -1.06945002449653
H        -2.19337775539940       2.70772694584791       0.64014331117406
H        -0.61128320893286       2.58384757579711      -0.14705887685179
H         2.09023453786676      -0.69530476012519       1.55433205089354
H         2.12341247163528       1.03157066574385       1.16436594830733
H         3.20747105884236       0.50883755879963      -1.03025448378575
H         3.15882682861493      -1.21706913588744      -0.64002808066294
H         4.64953225666004       0.91631782898053       0.97406456908437
H         4.59632167386302      -0.80987953264103       1.36029893349981
H         5.75955793415153       0.39244918958962      -1.20790893583049
H         6.69140025739945      -0.23585021912229       0.16102099122775
H         5.70620022339597      -1.33449447314008      -0.81780781268344
C        -1.13715676893725      -3.28568411935803       2.89217233723403
O        -1.49950395817395      -4.26586294449511       3.49589420668584
O        -1.68988524494368      -2.22649842435420       2.55564738282188
C         0.40751412859460      -3.30653615962707       2.34280705239709
F         0.41507888542423      -3.10324783231542       0.98879805660875
F         1.10992727896500      -4.41671818793394       2.56404248104978
F         1.12460229151337      -2.27317265787206       2.85147738036675
