35
C9H17F6N2P optimized with ADF in AMS.
N         0.50796488409812       0.06201888361054       1.03167189260056
N        -1.24665395031476       0.21808682510032      -0.23315318198234
C         1.57348489375721      -0.52597541025737       1.85750926489851
C        -2.48649515171071      -0.15912248653792      -0.93124770824628
C        -0.44947804353800      -0.64058263512062       0.41469746227450
C         2.81387005943517      -0.86041791427673       1.03481088585045
C        -3.71728489986661       0.41999837441821      -0.23979336904026
C         0.31985296204819       1.40398314918390       0.76714508650107
C        -0.78765393296061       1.50455957776610      -0.02371769233533
C         2.55941080788403      -1.92169182300091      -0.03020875604961
C        -3.86451370376909      -0.04282777175358       1.20462817931995
H         1.14050444804513      -1.42618823948217       2.31812267642827
H         1.79485027188131       0.20249429328311       2.65125535576589
H        -2.51882308255932      -1.25771710679375      -0.91754631026989
H        -2.40133322622071       0.18630567393160      -1.97370275957355
H        -0.59694753616133      -1.71436498119422       0.47786211228387
H         3.21666218839190       0.06175804751704       0.57854090869498
H         3.57503376545213      -1.21970631647151       1.74879259539552
H        -3.68785421207917       1.52319542243055      -0.29891493312946
H        -4.58906276805043       0.10480230782848      -0.83932793912517
H         0.97386469858020       2.16542878005053       1.17332980889097
H        -1.28759608987063       2.37094821304106      -0.43669882921556
H         1.87938528526851      -1.55310054396050      -0.81416938226995
H         2.10920985425970      -2.82267936368772       0.41409592636426
H         3.49990232040723      -2.20936479524552      -0.52210708231793
H        -3.00961549954070       0.27233651899819       1.82126243871900
H        -3.91600506351754      -1.13909961236457       1.27221308005394
H        -4.77738481882418       0.37892908208602       1.64967407807015
P        -1.54620702921592      -3.38033325855240       2.47511114110261
F        -3.07465358280254      -3.34360979988958       3.05416075522965
F        -1.38453380047202      -1.74093147451516       2.79953985000256
F        -0.92287593069380      -3.73255464537250       3.94357837343281
F         0.00918139220984      -3.33678247625026       1.81700241007194
F        -1.66724527715719      -4.96035037476625       2.08369228689594
F        -2.12796580199344      -2.96780463565240       0.93718625060795
