50
C14H30BF4N optimized with DFTB in AMS.
N        -0.19295791947145       1.42277738518274      -0.01514756956171
C         0.28946391047686       2.46846556039642       0.94176213977705
C        -0.86595179461637       2.24011118589981      -1.08091305346377
C         0.96235063302973       0.66784710047273      -0.61374553699194
C        -1.17419055859317       0.51127837080967       0.65374896830369
C         0.77810447760670       3.62000631834721       0.06358655564366
C         0.03278460865966       3.45526560985687      -1.27042339905638
C         1.73195773838491      -0.21534097474988       0.36227313264646
C        -1.71347286241632      -0.58086968553186      -0.26885445506353
C         2.88893475626501      -0.88216057196512      -0.39347908782502
C        -2.86619706338052      -1.31909631202596       0.41831286710202
C         3.68572990242901      -1.81297591550922       0.52493248242132
C        -3.41228523659050      -2.42879748504289      -0.48606091619318
C         4.83613411408340      -2.47916802682513      -0.22763831140063
C        -4.56968384987870      -3.16949827730245       0.18032030145729
H         1.05938668697318       2.05496866798048       1.59213673973601
H        -0.56401725342783       2.77676403449445       1.55074332238239
H        -1.84800368798572       2.52966831022662      -0.69907831026330
H        -0.97919514839726       1.65404864283700      -1.99084878671020
H         1.62897667678437       1.40796260388744      -1.05677915912559
H         0.55712214270038       0.06239153268705      -1.42519480482282
H        -1.99601391349483       1.14050760989497       1.00836002718876
H        -0.67916054258309       0.07502566782669       1.52527708996881
H         1.85855937287535       3.56384143761011      -0.08266213086002
H         0.54991341597392       4.57448770339060       0.54158973316714
H        -0.56704745468915       4.33419726418842      -1.51031695200365
H         0.72952244227203       3.27942667363771      -2.09230266961048
H         1.08384754757653      -0.99252996506453       0.77695039340732
H         2.13496561110998       0.36840157552896       1.19597742505554
H        -0.92325926259401      -1.29358443190652      -0.51443470770670
H        -2.06299723956444      -0.14449525376631      -1.20672678053490
H         3.55068796819910      -0.10971855234898      -0.79819111054234
H         2.48707310635909      -1.45292652407969      -1.23624457329441
H        -3.66734040429430      -0.60951404605619       0.65350526833920
H        -2.51512143653252      -1.75171269339765       1.36213237384701
H         3.01979561334859      -2.58315338042810       0.92914827350885
H         4.08462205595794      -1.23950397197962       1.36903703360783
H        -2.60929028089161      -3.13653669254062      -0.71578717120109
H        -3.75286000110539      -1.99121342124636      -1.42961778114925
H         5.38928374428285      -3.13743724449222       0.44251471163820
H         4.45483175836237      -3.07080807851557      -1.06064462482085
H         5.52130246640128      -1.72720511026953      -0.62102127137504
H        -4.93974477246242      -3.95267586294003      -0.48126983632922
H        -4.24389429860923      -3.62904542781921       1.11476534337494
H        -5.38909123017340      -2.48299106528582       0.39830718938904
B        -0.12036746477758       0.79508215748704      -3.90768329382156
F        -0.61115286651071      -0.19713300065955      -2.99399770714523
F        -1.11646880613533       1.76710537015478      -4.03706157876811
F         0.23818955292734       0.23153821516226      -5.09578655182304
F         0.99855959513625       1.40287787988900      -3.26356799859859
