43
C13H27NO2 optimized with DFTB in AMS.
N         0.24403784396242       0.37657076851718      -0.13575885008359
C        -0.82438046463541       1.20848164223360       0.50498561049085
C        -0.23370371850804      -0.06256910268060      -1.49049753445649
C         0.57146174760383      -0.79011781245835       0.75773251019648
C         1.45709880616907       1.23309410135296      -0.38748659663825
C        -2.16861083635687       0.49119093331939       0.59580086042866
C        -1.53968519105873      -0.83765492606479      -1.43371917844263
C        -2.63390869102407       0.00377891655137      -0.77656604616007
C         1.71684659333274      -1.68033216200194       0.28140612590699
C         2.15843433558976       1.77601275336194       0.85340738613340
C         1.90280300024870      -2.82582687183661       1.27366799643810
C         3.44851666878271       2.46342511890468       0.39961261335227
H        -0.47925252778812       1.48911981838591       1.50232940861202
H        -0.92765264083121       2.11395928755696      -0.09988962075597
H        -0.37554203148377       0.84895326772628      -2.07799537038630
H         0.57540531280563      -0.64522468403205      -1.95552286657785
H         0.79974074326593      -0.37552732559188       1.74345152892871
H        -0.33622742239753      -1.38938979251269       0.85333760006620
H         2.17401739554565       0.61594323477868      -0.95151138743837
H         1.12903970950264       2.06167814302188      -1.02032850386019
H        -2.10764825663944      -0.34901894054278       1.29262267677162
H        -2.89239419943219       1.20355644586308       1.00166842491277
H        -1.82438496763512      -1.07524556270283      -2.46177922316918
H        -1.41395307682673      -1.78295277136789      -0.89977627407048
H        -3.54683254242858      -0.58618871232863      -0.66490034031785
H        -2.86153998703958       0.86665859910598      -1.41116691001902
H         1.49868465330834      -2.08600706172474      -0.70820114429617
H         2.64579753405699      -1.11162401503405       0.20461136076415
H         1.52428925950182       2.48812512693853       1.39225222116968
H         2.41784447715170       0.96456355322440       1.53757455308631
H         2.72227109213115      -3.46115228793030       0.94008384832131
H         0.99811261848638      -3.43282219474497       1.34241134261468
H         2.14217797080913      -2.44379754617642       2.26773039450541
H         4.01403142103383       2.80175769083980       1.26723404308656
H         3.22149511682647       3.32441622936646      -0.23032427885734
H         4.05567204982504       1.76167596594429      -0.17371428029823
C         4.43130906451047      -1.17485897750116      -3.59405248819451
C         3.38687460930162      -0.83109043597387      -2.50794591621809
O         2.22292155136369      -1.24280162525156      -2.70839055301267
O         3.78476671173032      -0.17323921257073      -1.52230090730152
H         4.49885361428542      -2.25781873775002      -3.68926011827000
H         4.10070274306133      -0.76384948290189      -4.54712656174363
H         5.40437420219264      -0.76501983691259      -3.33105874841774
