36
C8H14F6N2O4S2 optimized with DFTB in AMS.
N         1.39346396082079       0.69387479666084      -0.35830880062470
C        -0.08847753270509       0.85575130836031      -0.46975893460366
C         1.56469356702090      -0.72890179939905       0.08307885362276
C        -0.66720079920234       0.05154341574888       0.69282116495497
C         0.40640279536417      -0.99259815247945       1.03921742570927
C         1.94401200777423       1.62961221453034       0.65981875197812
C         2.05855185054689       0.95432764175435      -1.66126969933354
H        -0.39499929736406       0.43507069784386      -1.43031265255079
H        -0.34320269608309       1.91561953206464      -0.44156433666034
H         2.54028091592670      -0.85558565677304       0.55268469774154
H         1.51253631890374      -1.35945296341360      -0.80637275702467
H        -1.60583866998048      -0.41731962019549       0.39345735624808
H        -0.86914794161220       0.69948026621730       1.54818572506448
H         0.73166862436547      -0.88306734774275       2.07513413517767
H         0.03375716733047      -2.00938701695776       0.90625127312523
H         1.76323918517477       2.65100753083560       0.32992915513308
H         1.45625670090624       1.45182628475368       1.61461739511906
H         3.01345711947768       1.44983984427809       0.75309834449847
H         1.70943237276334       0.22769151537879      -2.39166920795684
H         1.80896024106807       1.96363825249712      -1.98394981458734
H         3.13320503994088       0.85661219978511      -1.52953413327563
N         4.56798406294250      -1.65938719809284       0.95489579492467
S         5.29534423538896      -1.29258011370495       2.34720911140170
S         4.93842868277689      -0.75565192947408      -0.31129753306737
C         4.23413743175000       0.05665263919287       3.11388938539812
C         6.72184229128340      -1.04844349929389      -0.83868454411219
O         5.09131548391847      -2.40134654508683       3.23363808214417
O         6.60575046316385      -0.71648684501049       2.21829983937547
O         4.83930151897592       0.68305821132301      -0.08932521285986
O         4.13968646504569      -1.26753365023599      -1.40967051644190
F         4.32230248833976       0.02944720143945       4.42912471920414
F         2.94452597475753      -0.15534517338844       2.78155177490351
F         4.55323416923295       1.26763447882821       2.68661736235633
F         6.75496457243354      -1.07900349167517      -2.16185979167782
F         7.14984489419482      -2.20378011187398      -0.37094450177179
F         7.49729815645865      -0.07564777809464      -0.41389028433239
