29
C7H13F6N2P optimized with ADF in AMS.
N         0.85420686242212       0.50305248866610      -0.64664003099789
N        -1.31038305107664       0.41182895336125      -0.60027000913229
C        -0.20509643129564      -0.25583879869911      -0.94947778707884
C         2.24783859152768       0.12536497882045      -0.92822264049476
C        -2.67684415777128      -0.06244805970184      -0.87338570444617
C         0.41463015859985       1.68772951011101      -0.09201124837115
C        -0.94945549867949       1.63020038765158      -0.06548340468801
C         2.78530466003017      -0.83989980470834       0.11512581456392
C        -3.11363663900043      -1.11855507093217       0.12757514946290
H        -0.18382108203332      -1.19594426909738      -1.49107357233922
H         2.24650854614813      -0.31198789925737      -1.93826452535862
H         2.82494798173694       1.06042068848458      -0.95666141414029
H        -3.32528641984698       0.82460898553890      -0.84506955790729
H        -2.66255761566227      -0.45384869698239      -1.90229580729544
H         1.09892616889741       2.47145886965515       0.20786343144184
H        -1.68410393065859       2.35593630868670       0.26046286218289
H         2.75211278558463      -0.39841103319217       1.12290033359002
H         3.82989640739018      -1.09069933670033      -0.12353383382831
H         2.20535154823271      -1.77462056633028       0.11787969274054
H        -2.46711023730923      -2.00652952580772       0.06395998082137
H        -4.14191122505683      -1.43438916034916      -0.10405422004180
H        -3.08849939313190      -0.73160557587924       1.15777311594764
P        -0.41849975310909      -0.85405559996867      -4.37094113290085
F        -1.33377308408004      -1.69332517520509      -3.21491030179119
F        -0.61321978257972       0.52907992220742      -3.44308110490255
F         0.94774130078767      -1.22452171521455      -3.44849290367230
F         0.51066471130778      -0.01892009127220      -5.42200877687540
F        -0.21956547351281      -2.24257266074510      -5.20651989093293
F        -1.79033090676101      -0.49566817394003      -5.18602877365581
