35
C11H16F3NO3S optimized with ADF in AMS.
N         1.10208538772089      -0.60354835505388      -0.28175130672818
C        -1.23966171802879       0.10566528522972       0.07851749309204
C        -2.63123551083283       0.17260379361693      -0.54457513696094
C        -0.17921339806248      -0.27304335438869      -0.95131232052460
C        -3.70537409810913       0.46511854107299       0.50303162540689
C        -5.11258136053561       0.46610031232836      -0.08645486692170
C         1.41098885634221      -1.89609458438029      -0.04588144364207
C         1.86464619599230       0.40246339133718       0.21693394476860
C         2.56835918408214      -2.21988135229470       0.65612314722286
C         3.01046216506006       0.12718182555028       0.92537562997383
C         3.37415480289045      -1.20906944257425       1.14472603268984
H        -1.22182031988187      -0.65862971007295       0.87328864701119
H        -0.97900927280668       1.07496206587477       0.54085510133304
H        -2.85448010110873      -0.79899955070328      -1.02023283907185
H        -2.66575548657666       0.93957975759956      -1.34218065432413
H        -0.48160564820472      -1.17119359250522      -1.50637666682226
H         0.02388977252611       0.53470450953220      -1.67188645897652
H        -3.49560910774384       1.43973476061315       0.98121964561559
H        -3.63428123537659      -0.29848272873866       1.29706782547681
H        -5.21802951350385       1.23778547549886      -0.86666981842908
H        -5.87014118833650       0.66096537920000       0.68692010045347
H        -5.34254950832772      -0.51029919882638      -0.54289518105034
H         0.77243986242618      -2.66354937924411      -0.47523245421461
H         1.51430448774081       1.41253104506312       0.01528442052243
H         2.77329820010709      -3.27647558876761       0.82679134467137
H         3.61483165221133       0.95107810066721       1.30329961320698
H         4.28169376170801      -1.44537939061871       1.70227410427488
S        -0.61783073000142      -3.84092948958610       1.61585709362098
O        -1.10408024019451      -4.47291615890806       2.83616354097419
O         0.33863748074518      -4.59018933275431       0.77977913834164
O        -0.25631854873908      -2.39726105587578       1.74983340702600
C        -2.13953335767684      -3.75825848315098       0.51350460995113
F        -3.08748276518899      -2.92151612024574       1.01674346379627
F        -2.70239307844426      -4.97415309860946       0.34067614049679
F        -1.80570858317166      -3.27599651908520      -0.73585536846053
