45
C13H25BF4N2 optimized with ADF in AMS.
N         1.06289122430161       1.90345731101738       0.73952520585322
N        -1.09284299838689       2.02654983470281       0.95902964380684
C         2.39490897153759       2.08950424578127       0.15185859868272
C        -2.48807292680764       2.34500450114324       0.62548773374255
C         3.30328402528064       0.89147247186202       0.39105767098669
C        -3.14816165883481       1.24564006122312      -0.19669853425500
C         2.76694561444458      -0.40139589174222      -0.21856913958481
C        -3.20041286334450      -0.10228145859616       0.51751224200395
C        -0.08635534141331       2.06728693557780       0.07928752473110
C         0.78611948481785       1.77586518455368       2.08556335936020
C        -0.56747866533155       1.85219276867166       2.22031233230849
C         3.66213365419628      -1.61085570247744       0.04443019061396
C        -3.85237846917583      -1.20346526103316      -0.31675417598683
C         3.10090125062724      -2.89328174128805      -0.56565010791220
C        -3.88126730809398      -2.54523654592895       0.41128846783576
H         2.78556870691337       3.02828973886125       0.57336160551703
H         2.23665187682275       2.25589770184918      -0.92386084817237
H        -2.46390101288671       3.31598748494180       0.10934711249028
H        -3.00436632127291       2.49573842502423       1.58406766226924
H         3.47077389533258       0.75756835200079       1.47474042856985
H         4.28916567294916       1.13638592055970      -0.04095358202769
H        -4.16972776980870       1.58655943941785      -0.44046088491140
H        -2.62199632225317       1.14076290105492      -1.16303533302992
H         2.64677961030924      -0.26581798920034      -1.31006207246439
H         1.75763985366023      -0.60571222159632       0.18338305519314
H        -3.75380837112306       0.01013853691768       1.46913107245253
H        -2.17507992893565      -0.41485692230389       0.78923703907665
H        -0.17865063701309       2.28705538072163      -0.97407502712722
H         1.56799380203682       1.69812766019263       2.82828001324255
H        -1.19291202983575       1.85348392326950       3.10232551013964
H         3.78588211531851      -1.73917366539684       1.13482537167820
H         4.67072024097364      -1.41384881395006      -0.36095814163677
H        -4.88119155196754      -0.89956206760681      -0.58150631464383
H        -3.30498899224876      -1.30751837421754      -1.27101490187209
H         2.99656137483029      -2.79625887386291      -1.65800017469208
H         2.10457670348227      -3.11991820227875      -0.15355123606862
H         3.75302846223973      -3.75720841344117      -0.36598934403275
H        -4.44537758217767      -2.46889225083390       1.35436247852156
H        -2.86055526941475      -2.87863579700146       0.65886009541681
H        -4.35308687931924      -3.32946967328931      -0.20000183094467
B        -0.05558453575311       5.20979775068986       0.75574721222533
F        -0.03073036964844       6.59773351387287       0.61530816668557
F         1.20939479431064       4.71266972652963       1.20713580302468
F        -0.34677618311408       4.59374826663385      -0.52856316784418
F        -1.06761469892388       4.79627924127493       1.67617329777829
