33
C9H15F3N2O3S optimized with ForceField in AMS.
H         0.48093114298806      -0.44699671652845      -4.91193816768278
H        -1.17533120581023      -0.68724590872483      -4.22896643269024
H         0.02338395079021      -2.03747484872213      -4.17736700993860
C        -0.10008452922736      -0.93651875863003      -4.10236230167934
H         2.50605429613930      -0.06580931065730      -0.37273391499323
H         2.43436696822071      -1.15227929353810      -2.81180601346774
H        -1.35873375240456       0.46541441241529      -1.95891162299173
N         0.38242854520168      -0.47781093794804      -2.80610147068138
C        -0.31782613357719       0.18162935662658      -1.86295163157571
N         0.44087320602429       0.42749253317426      -0.77678939584250
C         1.65685746431056      -0.09139443053303      -1.04308560547720
C         1.62060341509561      -0.65132587230043      -2.30391542514091
C         0.02735576827134       1.11099933598895       0.44613052754493
H         0.81695465696515       1.83288760140262       0.75012722214599
H        -0.90723322268037       1.68413923109377       0.25738428726250
C        -0.21726748998184       0.09292552939561       1.56269988580063
H         0.72049379575045      -0.47274118893131       1.75650589527343
H        -1.00054234729178      -0.62451281964490       1.23190250436024
C        -0.67275835196076       0.78624957665345       2.85128780714380
H         0.10790001369083       1.50328983018823       3.18701794133456
H        -1.61269067606733       1.34960168344395       2.66279666181753
C        -0.92061788136443      -0.22846713747837       3.96245643235799
H         0.01635439782984      -0.77767541503576       4.19312505957669
H        -1.70768910500706      -0.95135319898041       3.65800001223313
H        -1.25721888833237       0.29741679896966       4.88039065772131
S        -1.29525335838276      -4.03019173750281       5.45005619033182
O        -0.88250871667894      -5.50305857042827       5.58576850663559
O        -2.50003424507090      -4.09354477734136       4.49980140217287
O        -0.18574882723185      -3.44093803145571       4.56742306567155
C        -1.58900355287333      -3.16274305115101       7.01893022287996
F        -0.42555984659677      -3.14611916940731       7.76340873013315
F        -2.57790663357315      -3.81549832540771       7.72912055329525
F        -1.98886399006505      -1.86538490120509       6.76418440566844
