36
C10H17F3N2O3S optimized with DFTB in AMS.
N         1.13778409578939       0.58535076769596       0.33301307668109
N        -0.82020856304081       0.67049205992058      -0.55820924797437
C         2.43169959662540       0.08250506388474       0.78744351336753
C        -2.06903600580938       0.26990908483214      -1.19400263423582
C         0.14802619964345      -0.15604844281914      -0.16352518656597
C         3.39925956938587      -0.08597773750707      -0.39098946700263
C        -3.22170935780648       0.30474327266498      -0.18889606209622
C         0.80552624128891       1.90586763117939       0.22661520720310
C        -0.43541430592396       1.96133827035614      -0.32475441665359
C         3.04437590578306      -1.27623266210901      -1.27426447497692
C        -3.03391630035216      -0.70616685352689       0.94019209960889
H         2.26341444199986      -0.86952715628097       1.30022854559483
H         2.82587221474364       0.80795345244783       1.50322030765152
H        -1.92912066896081      -0.73414367607478      -1.60168851532836
H        -2.25497531181385       0.96439288985280      -2.01660189249559
H         0.12656332946496      -1.22935777441959      -0.22831145052320
H         3.39788359937728       0.82920006166409      -0.98687270288437
H         4.39955036103096      -0.22261003869175       0.03002871206837
H        -3.30664781623835       1.31312813951742       0.22672375039400
H        -4.14449117815942       0.08311188608525      -0.73172131360921
H         1.48143599835555       2.69040940639268       0.51513103397290
H        -1.04419918610689       2.80098610594049      -0.60838664133628
H         2.04983767984939      -1.15367850231515      -1.70193862224394
H         3.08132867514678      -2.20877760275598      -0.70754026034265
H         3.75451336575759      -1.33108881540940      -2.09782754601166
H        -2.12543896144118      -0.48838365359729       1.50357838811415
H        -2.96153950854071      -1.71813482475441       0.53990164537422
H        -3.88272919350464      -0.66133346174303       1.62160268670003
S         2.08642435120989       1.79363483841185      -3.39179768114377
O         2.93886157645123       0.62992063943311      -3.49791014895466
O         2.23982254701854       2.79745861351772      -4.40842580820259
O         1.94153706460318       2.30084731334700      -2.03142045339202
C         0.38621504703445       1.08222033778921      -3.72083161891909
F         0.21735628613857      -0.07631678516340      -3.04694907002445
F         0.15570728636223       0.83234784543589      -4.99924865310944
F        -0.58464132236153       1.90453176089857      -3.28368267910380
