22
C8H11NO2 optimized with DFTB in AMS.
N        -0.91810641765025       0.43860652182798       0.17314231966532
C        -0.14782233559066       1.19691516154533      -0.66980983974934
C        -0.32614629132768      -0.31599122016831       1.24720428634609
C        -2.32465676716168       0.78302608969958       0.34999697003934
C         1.18231158890168       1.00186874104999      -0.79201923062587
C         1.11902805248449      -0.60856431778582       1.00138803756494
C         1.81908942879913       0.03682028112777       0.05649943096456
H        -0.69382119482023       1.89955027945764      -1.28990366460841
H        -0.91152986397644      -1.23482700556513       1.40862222095480
H        -2.86267588829346      -0.09125998062320       0.71968912076809
H        -2.43827548595433       1.60200369647172       1.06653457471598
H        -2.74280208176113       1.08262699211196      -0.61089989942243
H         1.76220386706054       1.56777803998266      -1.50698557833733
H         1.57156797595680      -1.32678673253070       1.67415732901214
H         2.87386328672080      -0.17044433471645      -0.08675693721116
C        -0.28486705055068       2.03876992216733       4.17125271576236
C        -0.02034003929654       1.59839629268686       2.74542765812946
O         0.54871101317202       2.27082272144138       1.93193105664984
O        -0.51215355769592       0.37559484157354       2.54337431923696
H         0.29419514340409       1.41026992226316       4.84620032742395
H         0.00865336825985       3.07838248125090       4.29383868311118
H        -1.34072507848041       1.91496001893179       4.40453535710956
