55
C15H20F18NP optimized with ADF in AMS.
N         1.37725984701199      -0.60780324839726      -0.41570143880801
C         1.65792789098411      -0.97808621291221      -1.86716868137012
C        -0.02717400078693      -1.05754438752099      -0.06497010203368
C         0.63227148986148      -0.41882216221825      -2.83224909103861
C        -1.09115641631858      -0.52463241082357      -1.01423227446766
C         1.49627266532705       0.89074196329519      -0.18884969272564
C         2.38334515973628      -1.37207385140001       0.44188395073497
C        -0.77754104823791      -0.87794769501094      -2.46708978595062
C         2.86776638476006       1.47483149865794      -0.45247281830702
C         2.34437439424291      -1.06510230585601       1.92300691961073
H         1.65264271134971      -2.07818276409557      -1.89290083186181
H         2.67851912171916      -0.65554859702443      -2.09457037228831
H        -0.21876057770921      -0.74721364195615       0.97128270277552
H        -0.00118763103555      -2.15837082842664      -0.10246897253698
H         0.92101408908191      -0.77609601417746      -3.83429902453755
H         0.68888479428138       0.68267654292102      -2.87397482851209
H        -1.20534881112585       0.56613075276252      -0.89620038681091
H        -2.05124695515638      -0.96849553461171      -0.70081349389133
H         0.74704257154449       1.36027794994358      -0.83698636993531
H         1.18122533459970       1.05674376572450       0.85214070429302
H         2.17868942979027      -2.43503166204710       0.24832454144216
H         3.36989507462218      -1.15692781590165       0.01714748994970
H        -1.52439778639544      -0.42754561590774      -3.13974511249071
H        -0.84465302187541      -1.97390722047092      -2.59731171964223
H         2.80761251753553       2.55737491270819      -0.25960828426095
H         3.64531830107495       1.06037067746528       0.20112817646700
H         3.19684720900962       1.33794612643541      -1.49074184031722
H         3.10259487324772      -1.70676011230835       2.39783638709122
H         2.62342669362953      -0.02615983597370       2.14806578966755
H         1.37807846812350      -1.29358140027095       2.39525510512492
P         5.98002387212877      -1.56982882609213      -2.27715654169961
F         6.50059772731460      -0.12432927837049      -2.90831499002243
F         4.71677997509013      -0.73215010583048      -1.49007092148075
F         7.17947528533651      -2.45480952244465      -2.99614483814202
C         4.89614558049789      -1.65657081874954      -3.95550668583962
C         7.24342282209985      -1.19825046938999      -0.78851275544436
C         5.18080347789046      -3.21092421757162      -1.41184100041982
C         5.67630339001819      -1.73912595463081      -5.31185443660229
C         6.83102635730136      -0.19007370974727       0.32489504412744
C         5.74589549409175      -4.61108076515107      -1.77720626260638
F         4.12609480275619      -0.50172933423080      -4.04175813912873
F         3.99818419038941      -2.70302848965583      -4.04427657832546
F         8.38474760312955      -0.65748516055084      -1.33737460855276
F         7.65163499268014      -2.33987464702148      -0.13544756305366
F         3.81538769132538      -3.29398253877735      -1.66466974357786
F         5.25550266498637      -3.11201483219958      -0.03549075016413
F         4.77862459727351      -1.57917045880314      -6.33393544004771
F         6.24934927279440      -2.95368906053106      -5.46743161854612
F         6.61990675263215      -0.78937186437567      -5.44756890298216
F         6.48850048896883       1.01695731774132      -0.18716875914961
F         5.77896266644626      -0.63868767563151       1.07071518166451
F         7.87004045418662       0.00294852115073       1.18056968886136
F         5.62113148679766      -4.84973897970551      -3.10224084865676
F         5.04021190276893      -5.57764741373517      -1.11326781019929
F         7.03961174560280      -4.73586234539804      -1.42523487288180
