79
C23H36F18NP optimized with DFTB in AMS.
N        -1.97585853506537      -0.95695180555653      -1.66907872723591
C        -2.84670302286435      -1.42356625041091      -2.80477698372360
C        -2.16743655799117       0.52165133028079      -1.49215052346404
C        -2.30846538734170      -1.66814108012391      -0.37705346955807
C        -0.55406077068957      -1.21141438860360      -2.09431273330575
C        -4.31513171154955      -1.06065060173247      -2.62933719104025
C        -3.62564539311799       0.91189941025516      -1.27700394348841
C        -4.48853021039087       0.44329536097435      -2.44661389147750
C        -1.83768497369065      -3.11660837875280      -0.25975816637317
C         0.50920053723076      -0.79323675506242      -1.08070559815426
C        -2.13414856127361      -3.60296980679015       1.16681234414364
C         1.88113399991786      -1.29081117029332      -1.55373204841372
C        -1.47178107849142      -4.95873044308394       1.43182783830890
C         2.97935628218161      -0.89301629772274      -0.56316250086579
C        -1.59262035891310      -5.38931667118851       2.89796551402212
C         4.34979999381827      -1.39730297433322      -1.02657628553335
C        -3.02784577280051      -5.70528258677112       3.31723277481101
C         5.44768110544783      -1.00635578887354      -0.03927744218587
H        -2.45652372314514      -0.95169076249450      -3.71102295558620
H        -2.71683746223808      -2.50173219281401      -2.88928828321389
H        -1.56210870543655       0.83730165256178      -0.64052179569794
H        -1.78399904433696       1.00296687159134      -2.39666719627926
H        -1.86365894558823      -1.07316100032608       0.42500303735229
H        -3.39231497508063      -1.63535076562753      -0.26055144715511
H        -0.47494937173601      -2.27819075382548      -2.31287402111446
H        -0.40331521665647      -0.66347813304801      -3.02826265186616
H        -4.83614795611541      -1.39755647788414      -3.52836497709060
H        -4.74878932387037      -1.59266254476042      -1.78045324076095
H        -3.99893024160862       0.49243013014480      -0.33934686757422
H        -3.66208071016201       2.00125220123737      -1.19325772842950
H        -5.53702569660362       0.67410097068526      -2.24679004355905
H        -4.18962180704176       0.97006882177793      -3.35876925593332
H        -2.35043700076306      -3.75255806255912      -0.98313899415888
H        -0.76285897015510      -3.19551647045486      -0.43692473224808
H         0.29740921273080      -1.21500889811789      -0.09603068659032
H         0.53395011772658       0.29578301450836      -0.98425098289863
H        -3.21563436685036      -3.67589132193452       1.30383296731403
H        -1.75213450772167      -2.86437574079271       1.88271366332027
H         2.10190722163030      -0.86819351210311      -2.53947919078798
H         1.85503920492629      -2.38073558754408      -1.65368597478616
H        -1.92285273705751      -5.71487916602012       0.78637832764835
H        -0.40832128852648      -4.88973618884734       1.17565458929951
H         3.00301714559748       0.19773053005458      -0.46463344841170
H         2.74819195503142      -1.31271286019984       0.42172910684655
H        -0.97811949408174      -6.28440703179259       3.03888268059453
H        -1.18526762500190      -4.60251566010182       3.54426937419139
H         4.32017289993774      -2.48728692975055      -1.12659205035300
H         4.57747660118003      -0.97660490085076      -2.01175456665406
H        -3.04017492558998      -6.05632369507355       4.34935942741956
H        -3.44672878464011      -6.48333225714602       2.67991232759911
H        -3.66189967661998      -4.82085064910285       3.24725111516255
H         5.50557144237297       0.07851371948092       0.05897991841092
H         5.24765788938251      -1.43415003625274       0.94391236157045
H         6.41147540127117      -1.37564343903446      -0.38942576331425
P        -4.28067192390833      -6.53226299987368      -2.04999485779990
F        -3.46390894356531      -7.19095343348662      -3.33979246299790
F        -2.82454957636309      -6.11138837783332      -1.29036807406948
F        -5.74706086378798      -6.82947703174896      -2.80022268795652
C        -4.08745246114720      -4.85854004310649      -3.07702290757982
C        -4.23949470140917      -8.34660518479172      -1.22371207180307
C        -5.31447346179098      -5.75760841124492      -0.48374206256305
C        -4.89193896066157      -4.60730091560650      -4.37424121536049
C        -3.83208282841665      -8.58684785740621       0.26385794009991
C        -6.08305403279561      -4.40783225403456      -0.35945551896745
F        -2.79064930264601      -4.67691019226066      -3.41827064829318
F        -4.38282097234404      -3.80204056947283      -2.27021471271570
F        -3.35109305660350      -9.08163604446192      -1.91638946748810
F        -5.43665208296549      -8.93336315809723      -1.37886611795884
F        -4.48072545209012      -5.75687208052450       0.58640915103883
F        -6.25168243395595      -6.69743492355762      -0.24307119285994
F        -4.51578589701536      -3.41187450208834      -4.88306606931208
F        -6.19604506771160      -4.53622215770551      -4.14385366880624
F        -4.66504176824709      -5.52430694072191      -5.29885517840601
F        -3.56094275076486      -9.88417044377285       0.43048166439786
F        -2.73274444945952      -7.90854130244597       0.59924759586327
F        -4.79133662130376      -8.27200074051450       1.12598948014736
F        -5.24667324595660      -3.39819489336319      -0.05019202965475
F        -6.97285708847434      -4.47666677449691       0.62881801601097
F        -6.73751360669189      -4.07391190457746      -1.46708314879749
