42
C10H18F6N2O4S2 optimized with ADF in AMS.
N         0.70947618758487      -0.13195019552230      -0.31345521636301
C         2.10482693040518      -0.29390049200868      -0.89215993179843
C         0.98764167427299       0.55626018914521       1.00461753182652
C         2.83062356059700       1.00426442003409      -0.53910412072731
C         2.08870912982284       1.57163209076278       0.70004027822116
C         0.03451305000858      -1.46529064795697      -0.08520031884372
C        -0.10395006099128       0.76424194339131      -1.24111118799951
C        -0.21630894700391      -2.25421776882789      -1.35078262943227
C        -1.54292459825051       0.96352405869087      -0.81567764083336
H         2.02031154748072      -0.48841337009451      -1.96710418776560
H         2.54436746572631      -1.16782261578099      -0.38721789595332
H         1.34395032353548      -0.23109001969606       1.68690513546501
H         0.05684334455124       0.97754493102322       1.40390484264078
H         2.78835664916514       1.70328471923419      -1.38586537208596
H         3.89036710054959       0.79703723077937      -0.33565328116599
H         2.74717020787875       1.68443851160797       1.57340770069616
H         1.66379103112073       2.56292763805756       0.48579789534656
H         0.70085366484300      -2.01419305192757       0.59886928402367
H        -0.89762393483547      -1.24842388547812       0.45784924047837
H         0.43752927546767       1.71698484981276      -1.29445101148726
H        -0.02557538211523       0.31751658013178      -2.24314173064623
H        -0.71348234525357      -3.19723447483497      -1.07621320335002
H        -0.86302505599243      -1.73317990973769      -2.06770243457654
H         0.71275002266652      -2.50819387061580      -1.87535415759957
H        -1.99376684544034       1.68469902889912      -1.51421377736156
H        -2.13577729893008       0.04041088792597      -0.87830917681110
H        -1.64575656363233       1.38707397830564       0.19457824506079
N         1.19259680834723      -0.13145888135313      -4.15612051427259
S         1.19532990689625      -1.49114807396272      -5.03023271431432
S         2.20495412969548       1.11314414616064      -4.35882374833685
C         2.74170895958939      -2.46950519141400      -4.52659550453902
C         1.97930264559573       1.82245130988504      -6.11384129618400
O         0.10891075862061      -2.30768126006169      -4.49864279174082
O         1.35780198340508      -1.30321749901402      -6.46334771554935
O         3.62020420345956       0.76373379367854      -4.28310829424474
O         1.69120718214716       2.17455107880124      -3.48623958404505
F         2.57037354901255      -3.76584924081256      -4.87959568251456
F         2.92618719870317      -2.43192916001668      -3.16760454274536
F         3.85472683608308      -2.00379454347377      -5.11552611678829
F         2.41935108751923       3.10675046756812      -6.09590994197183
F         0.67794154371989       1.81689405033650      -6.47624527844428
F         2.70109572727417       1.13924966005821      -7.01708607166720
