61
C17H24F18NP optimized with ForceField in AMS.
N        -1.37952010591274       0.17200852294741      -0.06535610899534
C        -1.65009529786002      -1.02276288988344      -0.92337138692496
C        -2.48350068430476       0.18021150655639       0.94273174377139
C        -0.06433988987604       0.01850355187524       0.63853321282620
C        -3.02207018106980      -1.56380459177390      -0.56715725140443
C        -3.20274776667182      -1.15191462592663       0.86605816259107
C        -1.43603767203858       1.41236491222888      -0.90459185998178
C         1.16891843739191       0.02462900612329      -0.29728163737835
C        -1.15932929252749       2.71703173825243      -0.13561513299327
C         2.44157395045227      -0.35938775374787       0.46844378608540
C         3.66786114866979      -0.32754732052988      -0.45199306248845
C         4.93845039721466      -0.70506519848003       0.30409205158626
H        -1.60417482388690      -0.80152881281762      -2.01435695448506
H        -0.92265078850902      -1.84711897924619      -0.74012280137078
H        -2.12970221597142       0.36112100800070       1.98345909841972
H        -3.24295272316220       0.96767584065080       0.72787290791188
H         0.07087696974989       0.82503927386697       1.39325477359371
H        -0.06485246798392      -0.93318529956164       1.21995384593079
H        -3.79644415360957      -1.07658343559498      -1.20069914905657
H        -3.07989349821711      -2.66766117498874      -0.68653834742323
H        -2.70692661254189      -1.88819095650031       1.53712616113283
H        -4.27794977961873      -1.06272115738328       1.13491400792811
H        -2.44061030800540       1.50294136517291      -1.37880736959802
H        -0.71669944366498       1.35110327703842      -1.75064069466477
H         1.31295411951022       1.03944036770539      -0.72330349282190
H         1.02797921077901      -0.68674441663866      -1.13758730470620
H        -1.79603183615541       2.80406783708057       0.76789024897813
H        -0.09340903172936       2.78835623077382       0.16092761411551
H        -1.37992225588915       3.58177963835174      -0.79610060862270
H         2.32457801373835      -1.38290429065511       0.88812510917201
H         2.59345563806214       0.35280466376373       1.30946374392805
H         3.52447992955784      -1.04184028380008      -1.29177597063540
H         3.79248234111638       0.69306326414247      -0.87514430506262
H         5.80529142292370      -0.67325344230218      -0.38924874901997
H         5.12103501764383       0.01037035311563       1.13389320406064
H         4.85153590317260      -1.73267351443141       0.71688718929678
P        10.08205783222691      -3.07379680373524      -1.99099412213115
F         9.65883694725329      -1.65636955695763      -2.87256412125088
F        11.79134740048513      -3.27024475881371      -1.88539268128256
F         8.39525746944122      -2.91180386379937      -1.69104950718941
C        10.59321754178843      -1.69781933975522      -0.72401269673009
C        10.24376106205577      -3.51804622516049      -3.86907995848706
C         9.66593753390197      -4.78342123859452      -1.19347114933022
C         9.47895033214366      -0.74293593339478      -0.21945731617776
C        10.81106187985465      -4.91069828218482      -4.21713453670966
C         9.39940614922337      -4.80864454068252       0.32271503477887
F        11.56545172155982      -0.89152660567614      -1.30348857942357
F        11.16933373639646      -2.27891163951833       0.38852563918176
F        11.08660432133016      -2.60336117565013      -4.49470860359902
F         8.99087880794811      -3.43125899462418      -4.46053800878438
F        10.73302345011652      -5.63953624131748      -1.39834367333815
F         8.56157067994865      -5.33811719003783      -1.82565677651172
F        10.01798916454114       0.10024905647190       0.73592451253446
F         8.43590518585608      -1.42564517780700       0.36785879754842
F         8.98077293757310       0.04672414620910      -1.23984603058046
F        11.01483103329792      -4.97727132824671      -5.58438893839815
F        12.02782945400833      -5.13256981332969      -3.60017096045457
F         9.92592954168140      -5.91735614114172      -3.88609347239599
F        10.56324235552802      -4.57936881041336       1.03034369159199
F         8.94396204670450      -6.06795909813510       0.67250963601336
F         8.43662597875909      -3.89737976198990       0.69458374513127
