54
C16H36ClN optimized with ForceField in AMS.
N        -0.00589798693252       0.00493927523457      -0.00277142997540
C         0.82163927082809      -1.00994297360016       0.74187533785999
C        -0.90449544279371       0.70462873528262       0.98319278791422
C        -0.80437066965972      -0.71038499320035      -1.06091909574075
C         0.86391651154043       1.03575185088893      -0.67325498285562
C         1.84222860717977      -0.43850609382792       1.76065721575680
C        -1.96075241070113       1.66659298269263       0.38038932576303
C        -1.88605580289750      -1.69545228973286      -0.54628309542785
C         1.97386849504509       0.48564452345890      -1.60646764991857
C         2.58443297521091      -1.57473080384917       2.47720418730340
C        -2.79667061597894       2.31055281186784       1.49548015310743
C        -2.62056511138030      -2.35294540671855      -1.72291446911103
C         2.78035575448235       1.63738911454546      -2.22226116701663
C         3.57618277491277      -1.02967404732554       3.50121819312619
C        -3.82884711777122       3.28052396942474       0.92817245737287
C        -3.67721024515161      -3.34021865309222      -1.23523153739385
C         3.86380194879536       1.11578261284878      -3.16199508159466
H         1.36916164944370      -1.66639591480442       0.02927950806981
H         0.15936330948951      -1.68923635611659       1.31948451346266
H        -0.29776545514765       1.32045357332159       1.68020388521423
H        -1.43145046012264      -0.03691235510739       1.62445779269994
H        -0.12847808955918      -1.31049860793312      -1.70655867669318
H        -1.29257725220413       0.02200643476224      -1.74212570637948
H         1.33999305863251       1.69655006145197       0.08527976055069
H         0.24139152370814       1.70703926586165      -1.30221878386693
H         1.32698699645390       0.16591986577743       2.53384014368180
H         2.59366625534957       0.20065326796962       1.25435183882754
H        -2.64985307517514       1.12796024074693      -0.30080743955826
H        -1.46679791785119       2.48118845413043      -0.18707416900843
H        -2.63683073365403      -1.17295819394302       0.07996113639587
H        -1.42217490420713      -2.50217770006941       0.05663372078453
H         1.52942511876972      -0.09831661652894      -2.43774098736568
H         2.67583974347248      -0.16775734440231      -1.05035747793250
H         3.13547650320806      -2.19067659977817       1.73383938489502
H         1.85300450699654      -2.22749442475867       3.00258199170014
H        -2.12988449256974       2.86666321178584       2.19061376998771
H        -3.32518052505761       1.52033661041008       2.07221930458253
H        -1.89198761811199      -2.89753231968758      -2.36288500336067
H        -3.11615911954388      -1.57201432010706      -2.34006435523075
H         3.26065541201056       2.23302938909923      -1.41548369773483
H         2.10164408785109       2.30546002091963      -2.79672236898614
H         3.04689016129766      -0.42211233883185       4.26617462092545
H         4.34349767172142      -0.40175717500286       3.00034771949984
H         4.08618894205189      -1.87418215081398       4.01064602694283
H        -4.53299547598344       2.74594577423131       0.25564425248831
H        -3.32540987291469       4.09365461341179       0.36276947133206
H        -4.40755251645060       3.73424694896127       1.76014364078740
H        -4.44089321734435      -2.81697027341756      -0.62116221407515
H        -3.20562196591946      -4.14316889655153      -0.62920798936148
H        -4.18150948500616      -3.80584081482293      -2.10798491605295
H         3.40875737995047       0.53132278397194      -3.99011194411260
H         4.57908510151616       0.47156333625403      -2.60753377415038
H         4.42085242735045       1.97164263834586      -3.59789904383179
Cl        6.23071234872106      -2.95388919093315       1.66627254330326
