46
C14H29NO2 optimized with ForceField in AMS.
N        -1.89648529624553       0.12997702893741      -0.05579047357603
C        -2.10187865917559      -1.09698527636764      -0.88496907257953
C        -3.02399327926940       0.12727027794126       0.92784183203104
C        -0.59279352353131       0.04709199296588       0.68036395996205
C        -3.48277168060342      -1.64669121572652      -0.58612097077239
C        -3.74339291915648      -1.20476878725321       0.82637896477117
C        -1.98046591817588       1.34404477338139      -0.93125315117824
C         0.66095685738049       0.05300765290591      -0.22766374923803
C        -1.72665076844823       2.67480189096162      -0.20024314983623
C         1.93075109429423      -0.17331163087966       0.60194726237097
C         3.18017898388096      -0.19940452344387      -0.28653349214891
C         4.44770772312051      -0.36875113661347       0.55926787119322
C         5.69680984727159      -0.41170618453265      -0.31571095022138
H        -1.37456561930621      -1.90270463294076      -0.63202035112502
H        -1.99602757676302      -0.91374987168626      -1.97870430705011
H        -3.77733682145520       0.91919856913629       0.71024868463781
H        -2.69413013192415       0.29725965064488       1.97853215859831
H        -0.57440671339755      -0.88044810246701       1.29927101177106
H        -0.50124284874033       0.88612799053858       1.40547043158841
H        -3.51761176320307      -2.75414168252613      -0.68017100634592
H        -4.22941510945120      -1.18763278616548      -1.27136544286492
H        -4.83239942778432      -1.10518205629505       1.02792120741221
H        -3.29477831367269      -1.93177923293268       1.53914378177073
H        -1.26163539220779       1.27488952294107      -1.77680485515093
H        -2.98681636966018       1.40010795342752      -1.40709186071955
H         0.58772827755213      -0.74049331757942      -1.00003722189742
H         0.75689354445162       1.03088795737119      -0.74295372192153
H        -2.00908216536464       3.51732928927716      -0.86568322865899
H        -2.32282737875479       2.75412014525220       0.73112122695915
H        -0.65190969513997       2.79249806705787       0.04594666560430
H         1.85061963903053      -1.14033160022076       1.14518523262412
H         2.02708987331873       0.64433718904971       1.34996777115752
H         3.24640902775612       0.75020499398863      -0.86178173647207
H         3.10096059558290      -1.04366518849015      -1.00642097964910
H         4.53782989263978       0.48032864837837       1.27132023025627
H         4.38583992649693      -1.31277503887265       1.14325224537762
H         5.79299388061316       0.52852149343816      -0.89902755736009
H         6.59564572492749      -0.52373759512664       0.32671695895038
H         5.65007591820360      -1.27428159679659      -1.01372414177785
C         1.04998368512652       4.29771418738625       4.46195677015294
C        -0.10030574516031       4.56289833089271       3.54285920542486
O        -1.10326832243508       5.11516119370054       3.96559137669699
O        -0.04014734037407       4.23043556616190       2.37014442069404
H         1.43376053244272       5.25822791798211       4.86540313463496
H         0.71464679203674       3.65618144806807       5.30360998046422
H         1.87211636757368       3.78101610322994       3.92198001673989
