38
C12H22N2O2 optimized with ADF in AMS.
N         2.28261691142536       0.03461765701421       0.49024438871022
N         3.52369965732459       1.82253208709246       0.63373133248437
C         0.29886205976112      -1.45927977361502       0.35651961310362
C        -0.71038933846320      -0.47248989373984      -0.22382488088814
C         1.73409398021959      -1.19315784624744      -0.07817532126523
C        -2.14726220819616      -0.79473530369046       0.18115489353341
C        -3.18571626591726       0.11382387602010      -0.47346104223608
C         2.92596121784072       0.97606813454356      -0.24376791759073
C         2.64513600449089       0.18062127737356       1.82326371248053
C        -4.61432894487590      -0.22676991092798      -0.05603060830859
C         3.41996693320645       1.28639734085369       1.91243493293136
C         4.52846580717370       2.78696613437338       0.22913620219971
H         0.23715192103010      -1.45213375933904       1.46057037204173
H         0.03851418317926      -2.48558223380544       0.04113294305816
H        -0.63208710607199      -0.48709447571288      -1.32769350928757
H        -0.45249463803740       0.55399275118881       0.09737537660874
H         1.80859185793606      -1.09620201026669      -1.17123071624910
H         2.41353005436915      -2.01098551279650       0.21682243827533
H        -2.37043211863608      -1.84602263325336      -0.08495952626292
H        -2.24340099573645      -0.72796176368190       1.28151348710643
H        -2.96375611924183       1.16606960619825      -0.21798015893390
H        -3.09244991365760       0.03459351347829      -1.57222053108620
H         2.63380367781822       1.26092769915274      -1.24574746187915
H         2.35822969632877      -0.54317655954969       2.57356382204575
H         3.94332003626973       1.71998095999731       2.75385394818373
H        -4.73980422341278      -0.12989721267788       1.03440722676823
H        -5.34670362930545       0.43736605091652      -0.54071440109372
H        -4.86777204815692      -1.26396682091071      -0.32969458044767
H         4.55764144655705       3.61172225075139       0.95324048657446
H         5.50568868328906       2.28336171892847       0.17334018549768
H         4.27169030422958       3.18328139958210      -0.76032117432925
C         6.25883228898064      -1.51545297383447      -1.46683693189366
C         5.21887656164153      -0.70930218979179      -0.68333498738406
O         4.44775920736971       0.01205800574422      -1.43124543930089
O         5.18599005405997      -0.78718804937371       0.56236235855430
H         5.77804830624791      -2.05853884899394      -2.29407136402491
H         6.99163574521783      -0.82680441796129      -1.91554885675513
H         6.78142257054200      -2.21752252823904      -0.80374702154087
