56
C16H19F18N2P optimized with ForceField in AMS.
N         0.43011598128233      -1.51712408509911       0.36268987255575
N        -1.70458557395097      -0.90170637957069       0.26608006929722
C         1.80507697116548      -1.67420959315243       0.83416291732013
C         2.76496315817987      -0.78527664289698       0.03350705928084
C        -2.98643304337873      -0.29377600212258       0.61969001982227
C        -0.58426075632855      -0.91599330921567       1.01456836970069
C         2.49567407770017       0.70638748627823       0.27630915308254
C        -0.06814744105795      -1.90715343210549      -0.82819339689966
C        -1.39302397028906      -1.52680432065879      -0.88754451492706
C        -3.29953802971230       0.90457565329824      -0.28536909998485
C         3.44455597852773       1.57866403790662      -0.53950477369240
C        -2.26445808382326       2.01942223456905      -0.14064123240900
H         1.87308381819598      -1.41621066933783       1.91422140109858
H         2.10809524052863      -2.73782795143866       0.72445140606656
H         2.66929347967065      -1.01662547866671      -1.04990884412878
H         3.80549719077828      -1.02382920517639       0.34247496676549
H        -2.97298617994641       0.03905587925053       1.68111164216487
H        -3.79091790656720      -1.05332334389834       0.51610809897265
H        -0.50015985132084      -0.47083218885513       1.99838420662315
H         1.45193141403009       0.95669689970022      -0.01227197007478
H         2.62833276428524       0.93921292329332       1.35549009679218
H         0.49223106850649      -2.41797769744407      -1.60049585288029
H        -2.07278951306508      -1.68136254195387      -1.71546785199596
H        -3.34293100650613       0.57659806727483      -1.34632933353409
H        -4.29894183056409       1.30692592871868      -0.01270828294653
H         3.29670177501808       1.39668657588385      -1.62523639056346
H         4.49943715767326       1.35930194424700      -0.27302050534550
H         3.23955810026997       2.64913997393850      -0.32734079405654
H        -1.26659217908038       1.67166295736608      -0.48266276669201
H        -2.19534644153834       2.34840386268561       0.91799074336445
H        -2.56514811995968       2.88755918503048      -0.76401416077311
P         6.05713406760395       1.51607492899494       5.35656365749167
F         5.43893214637085       0.03073721208688       5.97775319269523
F         4.80692085831233       2.31252625568130       4.47756479244535
F         7.22539948032969       0.83203298460118       6.41841972540504
C         4.89605864491320       2.23053370389546       6.72771292106588
C         6.02258607873617       0.31988016709674       3.83504347277074
C         7.54947100565316       2.65591456217824       4.94706520923159
C         5.33625580302307       1.97477594377026       8.18587353040468
C         6.37177914277082       0.91850880433115       2.44938818923467
C         8.08415389354096       3.56962351660398       6.06559260824694
F         3.63281906245691       1.66738870960497       6.58810764651147
F         4.74206710904894       3.59834973528629       6.56563778719061
F         4.74977432912623      -0.22823759789842       3.70564484170725
F         6.91237183244030      -0.71826652191185       4.06720589369251
F         7.19024891444786       3.47317892779569       3.89017720114303
F         8.61627938233928       1.87062403556683       4.54184902571230
F         4.37195797372000       2.48018760124152       9.03984218664919
F         6.52599240611176       2.60728678396959       8.47185675240588
F         5.46925042016491       0.62321681063271       8.44609071583781
F         6.09074835105878      -0.02632971980174       1.47852074891382
F         5.62608463168213       2.04709861653907       2.16678076810320
F         7.71358708763275       1.22031818733108       2.34405327538255
F         7.09622600442908       4.38341510078271       6.57553807536703
F         9.06588592246162       4.38857664329361       5.53560018825153
F         8.66300000680196       2.83131594267932       7.08124584863668
