28
C8H12F6NP optimized with DFTB in AMS.
N        -0.08790244442223       0.16643040222659      -0.64796827938992
C         1.27069039196776      -0.32309319833151      -0.92499660364901
C         2.16099783069256      -0.13742937171974       0.31301060815194
C         3.63257529380644      -0.15655138720887      -0.08749607910965
C        -0.49957957102221       1.31844929686484      -1.19204480186864
C        -0.85415549088335      -0.49605761841721       0.23750799053127
C        -1.73319910780609       1.85222189310612      -0.86188791228212
C        -2.08875554674441      -0.00643035150091       0.59602793791156
C        -2.53981984704226       1.19193496258717       0.04663939206537
H         1.20336447524606      -1.37686911458216      -1.20933318951829
H         1.66659045308358       0.25200123754870      -1.76309514840215
H         1.94792967958662      -0.93080908660077       1.03645381243376
H         1.92882599292234       0.82190498398447       0.77892446141671
H         3.88489999983693      -1.08171711818686      -0.60780175379715
H         4.25093193212108      -0.07550519372669       0.80573974792132
H         3.85062379796886       0.69015514221637      -0.73772534945221
H         0.17154264193010       1.81252599840682      -1.88192449073597
H        -0.45314753728445      -1.41692955426404       0.64316652568253
H        -2.02233734909355       2.79943300313995      -1.29859154553495
H        -2.68980760784963      -0.55382902018465       1.31087675986798
H        -3.50201864161032       1.59751167117295       0.33452688662130
P         1.80164686270349       3.67553539057449      -0.45123115104103
F         2.15525544571224       2.39936155483408      -1.49759542821970
F         2.75532814551453       4.65521609487113      -1.32192006194388
F         0.49462301034969       4.03177958423865      -1.41514488315857
F         1.40325563797560       4.86821202938144       0.57677977804747
F         0.79341437100352       2.61718322155216       0.40410410989337
F         3.04886623413711       3.19962330281747       0.49574615145865
