52
C16H34ClN optimized with ADF in AMS.
N        -0.14332611920370       1.99936012844031       0.17824511544806
C        -0.83063882089928       2.89820309534564      -0.84100741968898
C         0.45331630101849       2.98456869793576       1.15563305572311
C        -1.13558155910280       1.09967497083153       0.87457713597545
C         0.95057922464264       1.20737468064487      -0.52651662422596
C         0.13014775539356       4.06943694168611      -1.01832945908871
C         0.94740879115563       4.15478271356536       0.29999653841961
C        -1.82881153993023       0.10645244871749      -0.03611674874581
C         1.62153150869938       0.14980461612462       0.32779938219990
C        -2.84894419644585      -0.71899965649706       0.74578258333352
C         2.76339798958461      -0.49364444390895      -0.46366769762199
C        -3.56740461580007      -1.72897731210870      -0.14766238902156
C         3.46460383797083      -1.60449019874436       0.31313583469501
C        -4.59071882827974      -2.57429457498331       0.60622107239774
C         4.60254800797403      -2.25503365867472      -0.47072738602188
C        -5.29815748999794      -3.58455392290654      -0.29427151548288
C         5.29878229519154      -3.36691404814342       0.30991515809116
H        -1.00965555749941       2.29563836746425      -1.76696696621947
H        -1.77850796542183       3.21040266713133      -0.37509315701461
H        -0.36513472103989       3.29091343595411       1.82494357565688
H         1.22906459945294       2.48272130836522       1.74822074057212
H        -0.58848767168768       0.59428203925350       1.68640565942094
H        -1.86876001175732       1.77957466632778       1.34041953834489
H         0.47165218357624       0.78626652297639      -1.44595626983168
H         1.68582021532057       1.95350495696863      -0.86370783714877
H         0.78566092674395       3.89172748184261      -1.88437082201455
H        -0.42912567945881       4.99375266322089      -1.22162265401803
H         0.78500718705476       5.10215778760198       0.83471665449013
H         2.02720507300370       4.07678769621606       0.10516466396402
H        -2.31140626962404       0.62484668058003      -0.88110975094556
H        -1.09788561021586      -0.55788235047074      -0.52314535629171
H         2.02608473516644       0.56322104416473       1.27105168052167
H         0.90156841004394      -0.63941716013640       0.60299975295307
H        -2.34846162261545      -1.25607549615958       1.57496433819114
H        -3.59626059600305      -0.05160152942923       1.21640229725526
H         3.50103151663283       0.28155677423638      -0.74163992618114
H         2.35821698307147      -0.89187152501225      -1.41092349268746
H        -4.06334562698972      -1.19080475059894      -0.97591681952891
H        -2.81900883976410      -2.38791071982787      -0.62449967640011
H         3.86162336542449      -1.19901070776086       1.26385282631572
H         2.72540254696066      -2.37921383643558       0.59127415108184
H        -5.33741513577365      -1.90811670744526       1.07697546044424
H        -4.08499622480163      -3.10493377080345       1.43471422772596
H         4.20199440350571      -2.65726331066358      -1.41886142898217
H         5.33813258267083      -1.47901363085192      -0.75170406263118
H        -5.83122426643722      -3.07468249386205      -1.11288430773915
H        -6.03139502032602      -4.18383118398333       0.26661921653217
H        -4.57336172537865      -4.27625880079398      -0.75278759499233
H         4.58858467582082      -4.16757533863618       0.57283129429244
H         6.11452651330905      -3.81954877869797      -0.27384445725110
H         5.72867233279352      -2.98105303841034       1.24881493318619
Cl       -0.80082476022869       0.64368686265095      -3.23241254825655
