58
C16H22F18NP optimized with ADF in AMS.
N         2.01613067059718      -0.16843877433895       0.78291676232345
C         0.50883718646290      -0.22832983400598       0.94995438044957
C         2.65064952590394      -1.39593205942322       1.42643229248249
C         2.29243086819114      -0.17972981253289      -0.71361918192730
C         0.06583210645239      -0.40882301961521       2.39162932289096
C         2.21316575548357      -1.59796033827694       2.86628466061346
C         0.69505959899289      -1.66023002556787       3.00142238768884
C         2.56347438347253       1.08881861564123       1.39154303818360
C         3.74736450857329      -0.08123485114108      -1.12982579420186
C         3.85029574107066      -0.22648261777773      -2.65211823437048
C         5.29065827246186      -0.09517821990170      -3.13935790555115
H         0.17503220826900      -1.08429870929355       0.34137731588479
H         0.10942613834382       0.69473099901135       0.50240332848698
H         3.73702506545007      -1.26282376595138       1.36474100003367
H         2.34275580163221      -2.24743272901986       0.79735758918352
H         1.71211414954437       0.66089892628878      -1.12885150219241
H         1.84669723738336      -1.11661525378555      -1.08555105636322
H        -1.03505429716099      -0.47608898911029       2.38588776010785
H         0.31833824655479       0.48270309760149       2.98966510523048
H         2.63474960456072      -0.80424941944347       3.50107189832744
H         2.68729557134372      -2.53094052296266       3.21033689073306
H         0.40670066695586      -1.75771028488633       4.05963077265414
H         0.30763798304585      -2.55478618134879       2.47890913092033
H         2.30190039382466       1.12706532848870       2.45229215030269
H         3.65324373729354       1.08091309400878       1.30320004694008
H         2.12865247439970       1.94576219135808       0.86061632073845
H         4.35359868629270      -0.86495574032772      -0.64973279392282
H         4.17881339721518       0.88307613122860      -0.82535755401417
H         3.21974150883339       0.54017520600881      -3.13938473930749
H         3.44023288550111      -1.20837488569394      -2.95249378392113
H         5.93925826818842      -0.83713647667425      -2.64848771122279
H         5.69445584395399       0.90073488622504      -2.90604503709147
H         5.35569793658649      -0.24760592679214      -4.22674657917559
P         6.89591948367538       0.26972101974576       2.54189635570047
F         7.82569529789459      -0.44443907723409       1.36367470392573
F         5.53140945099410       0.12034081061718       1.51789807162032
F         8.16642377705458       0.43866793362231       3.58905100600989
C         6.58494173703488      -1.56065295059037       3.25475076225927
C         7.42461543062100       1.98181463515335       1.67342664608490
C         5.62049198409442       1.11998709370981       3.84856998591269
C         7.58496761807336      -2.69064308955526       2.83601376094517
C         6.79335457530013       2.35207648530756       0.29726033229391
C         6.09671193551156       1.70086003785474       5.21821893746541
F         5.34282703030381      -2.07625976665451       2.88615838382854
F         6.61389002482321      -1.54943155235253       4.62735832174795
F         8.77846548282867       1.92257191986504       1.43572630979139
F         7.22672413107291       3.09187762001524       2.46492361449751
F         4.63135010283309       0.20138938713543       4.18585339718547
F         4.94460237418655       2.15572161962321       3.22497728184397
F         7.31264807233946      -3.81082772725247       3.57229893053836
F         8.86796106471477      -2.35284625050040       3.06642790532325
F         7.43661343204316      -3.03436931913983       1.53211664261790
F         7.40792719297820       3.45320249758848      -0.21265831853792
F         6.91210768950390       1.35917047199356      -0.61254240749404
F         5.46591223303554       2.66056851204541       0.41356395936442
F         6.57550386421628       0.73636483723557       6.03070982461933
F         5.02037280586480       2.27103325550541       5.84725513714470
F         7.03697871072737       2.65449036977204       5.07598371129740
