45
C11H24F2N2O4S2 optimized with ADF in AMS.
N         0.04160330279032       0.28064662934324      -0.69122649260969
C         0.52179196480832      -0.84855355264472      -1.58667276182443
C        -1.39195424355795      -0.11459144529923      -0.41931916316502
C         0.83289294854823       0.26907486907157       0.60611401286639
C        -0.10863634351990      -2.11269289135149      -1.01007251834949
C        -1.35882148084376      -1.63213279642587      -0.22642499935407
C         0.14824816134806       1.61249636970275      -1.40035254720336
C         2.26929175288877       0.75904485465643       0.47859728705877
C        -0.37662014202287       2.78033190279875      -0.59089838570735
C         3.13997263295398       0.14420103195653       1.58317575376738
C         3.48839541602251      -1.31976684968100       1.31198146831126
C         4.33774896754538      -1.93502009020872       2.41988260222547
H         0.16451487613098      -0.62039364937311      -2.59980105458882
H         1.61551915361562      -0.83691573545331      -1.60442735643526
H        -1.77500746786690       0.45008344791224       0.43967198445797
H        -1.95800108004952       0.16503899825103      -1.32059370320761
H         0.26371327555731       0.87230682017149       1.32938818436131
H         0.81232459293792      -0.77322621503808       0.95089874146370
H        -0.35946867108896      -2.80428436053136      -1.82638656588360
H         0.59854504499492      -2.64146769268043      -0.35473928458374
H        -1.28464838787838      -1.89036714605052       0.84011572725370
H        -2.28987057295253      -2.07890395145488      -0.60325718359431
H        -0.40968110708868       1.49179166086013      -2.34084035595040
H         1.20481882441995       1.75251232057669      -1.66861206695729
H         2.29787703425497       1.85936521758319       0.53259412747213
H         2.70490328180357       0.47988116789024      -0.49536464480739
H        -1.44705026900859       2.69012763542676      -0.35521758319656
H         0.18584452892530       2.92778045082567       0.34186748278735
H        -0.24430247321327       3.69071289280585      -1.19463885506323
H         2.64060470974269       0.24411737280120       2.56676715931560
H         4.07402177921247       0.72684277246966       1.65192428939861
H         2.56696665967402      -1.92014752979498       1.19499225540872
H         4.01369100700211      -1.39199028192492       0.34487979888989
H         4.60847491268596      -2.97398333771847       2.17969497371885
H         5.27223467885446      -1.36747002364908       2.55624026677617
H         3.80115210230912      -1.93499958108758       3.38283272057067
N         3.50586731216168      -0.23939607972830      -2.66569084838387
S         3.60055088985067      -1.78083549648753      -3.14584253874650
S         3.20163007150244       0.96844184754026      -3.67742393181021
F         5.00513854848465      -1.85589324498777      -3.98222621151321
F         1.62490646774919       0.66593219207025      -4.18189450574934
O         3.82915556225952      -2.56038191960300      -1.94174554061914
O         2.57664168361777      -2.19221359122744      -4.08964911991357
O         3.95744565081199       1.00611518145215      -4.90887523726074
O         3.04122913722648       2.15896630593570      -2.85232685892576
