38
C12H19F3N2O2 optimized with ForceField in AMS.
N         1.90593975289982      -0.93917979779865      -0.23101676923744
N         3.14009120361282       0.90605011554466      -0.11463074460577
C        -0.37893995607131      -1.86774537361370      -0.07453332839555
C        -1.05302280030859      -0.51641094997084      -0.35129088306925
C         0.99931790760398      -1.96683504218064      -0.74103471787730
C        -2.46131463641295      -0.46584781721493       0.25185251587475
C        -3.10189287084679       0.90933582516315       0.02899872500170
C         2.37115118788624       0.13169516288145      -0.90410334731305
C         2.40223473529364      -0.84143973404337       1.01948103283688
C        -4.51176286218940       0.96464820696960       0.60964225735781
C         3.16712733080813       0.30600687928086       1.09166589132567
C         3.78270922729735       2.16348599635189      -0.47447378037737
H        -0.26959095693072      -2.00999144727448       1.02132578397603
H        -1.01893047348459      -2.68863733729298      -0.46570638440777
H        -1.11650989867507      -0.35202057146762      -1.44956700834117
H        -0.44000354283410       0.29830361238388       0.09283208400188
H         0.88365248614533      -1.86250397422750      -1.84242332479097
H         1.43482429061438      -2.97008571221340      -0.54327696107304
H        -3.09227918577537      -1.24980049873615      -0.22255256765446
H        -2.40291137179894      -0.67066844455748       1.34388301541427
H        -2.48256897645102       1.69373513472192       0.51677325281817
H        -3.15268128785226       1.12782005503857      -1.06010260236831
H         2.13410760070915       0.35504159148216      -1.93746536824013
H         2.21025372630087      -1.54267676293122       1.82172538752869
H         3.69083890926797       0.68134532579590       1.96167918395004
H        -4.48697400088421       0.77334618353175       1.70370269183676
H        -4.94512843736843       1.97217240037648       0.43546485289625
H        -5.16130928028994       0.20901927769232       0.11856435236917
H         4.88091192104556       2.07456077931434      -0.33900758332248
H         3.57087780972876       2.41941315187555      -1.53465995112828
H         3.39754252321603       2.97847044564663       0.17393976961765
C        -0.31691203962034      -4.83805947283408       3.35817719502559
O         0.14761008650287      -3.78360425079252       2.95603239100399
O        -0.61859119977506      -4.95286201943397       4.53515389927721
C        -0.51434523248308      -5.99179439666700       2.41913181990662
F         0.24355214655338      -7.06713756050309       2.84414098992576
F        -0.12850991107319      -5.64816929091932       1.13484577605627
F        -1.84840793396089      -6.35445684487814       2.40562340950116
