43
C11H24F6NP optimized with ADF in AMS.
N        -1.33594535300023       0.44765868347113      -0.20135299712912
C        -1.70045087248664      -0.73979062910084      -1.09335639660308
C        -2.52505288222343       0.59342493053929       0.77477307461811
C        -0.06187581478778       0.18218542494356       0.56261494140124
C        -3.21503084985909      -0.80848452660227      -1.04989537385548
C        -3.51059369733201      -0.51790243476220       0.42203192323203
C        -1.22351261229213       1.69482884558433      -1.07157343241317
C         1.17213730400904       0.00838434181059      -0.30724552892654
C        -0.85490435037079       2.94657120718105      -0.31027731849396
C         2.38959850355995      -0.37851851493599       0.53637519797203
C         3.65605783613148      -0.54682517610158      -0.30310001405972
C         4.86872010092212      -0.94266517922020       0.53547775976700
H        -1.27331253110766      -0.57884656833908      -2.09081304070565
H        -1.24764469055778      -1.63158346967574      -0.63247104925092
H        -2.13698961957840       0.54415008399560       1.80042482869252
H        -2.97610728761176       1.57264323188690       0.58147005397143
H         0.07106573488868       1.02184634671990       1.26048433275595
H        -0.24968320141083      -0.72551799853024       1.15945461946527
H        -3.65906983846184      -0.03668141813748      -1.69674712070360
H        -3.57674543103522      -1.79370181726035      -1.37699798981670
H        -3.33601830622976      -1.41407938095403       1.04107245804902
H        -4.54233453311303      -0.17322624140984       0.57596762293015
H        -2.19778847793219       1.80736516027154      -1.56380519158041
H        -0.47930900819060       1.46247966365301      -1.84505728796145
H         1.39261335270080       0.94561201609243      -0.84422726129440
H         0.99937403811952      -0.76961083573832      -1.07002739421573
H        -1.54498812019107       3.14600416916407       0.52133115002166
H         0.17769167736276       2.93245152562405       0.06784380003084
H        -0.96221701036082       3.79065572628244      -1.00607283404260
H         2.18174524528783      -1.32138928985537       1.07538279662667
H         2.56485939364342       0.39218080183850       1.30930916872699
H         3.47504665329503      -1.30999105237112      -1.08116053055133
H         3.86395041386648       0.39813305609593      -0.83685890411888
H         5.76742339146567      -1.05720853831996      -0.08817795175155
H         5.08521547638432      -0.18019147557448       1.30065174015379
H         4.69445895173416      -1.89921255020917       1.05414901790052
P        -4.74017911426820       2.93117403434183      -2.35356095004050
F        -6.02399124640139       1.93374434649331      -2.58484729162858
F        -3.72987147222034       1.74831489867615      -3.01586882415494
F        -4.92817107172815       3.60068536416770      -3.83171023417909
F        -3.38606750627581       3.86183249717389      -2.07688017695032
F        -5.68644051139571       4.06455903888489      -1.65027007447442
F        -4.48946153504862       2.21174328860620      -0.83975428931308
