41
C13H21F3N2O2 optimized with ForceField in AMS.
N        -1.11994576805379      -1.73667889821124       0.23325607498368
N         1.10283054146109      -1.71143234822939       0.29632083591347
C        -2.51170339531783      -1.46655925724126       0.58976592936768
C         2.46523226643407      -1.40627575402891       0.73102490437201
C        -3.02454876233279      -0.20171789720266      -0.11207884264816
C         3.05035783824625      -0.23227616057086      -0.06662615509825
C        -0.03185927084214      -1.46410761716370       0.97951535553473
C        -0.65948863908981      -2.18133875872601      -0.95338769246707
C         0.72018177911864      -2.16902103201883      -0.91311902104086
C        -2.26526107137036       1.05302738050254       0.34359183454630
C         2.22230872516154       1.04908492790601       0.10867177359895
C        -2.87051502386905       2.31672314812209      -0.25829314414577
C         2.87195890068178       2.23076358456843      -0.60318832179219
H        -3.14092490020292      -2.33424568957377       0.29594846810644
H        -2.60647372099275      -1.34365310137588       1.69100398679123
H         2.47264586924172      -1.15350233371454       1.81426564409191
H         3.10477378094063      -2.30421023023268       0.59169982204751
H        -4.10459299606059      -0.08380287426634       0.12420625361013
H        -2.92525319755771      -0.32123827148578      -1.21334324943941
H         3.09886688197177      -0.50265342223451      -1.14408904123280
H         4.08860094709243      -0.05142466837956       0.28782559417327
H        -0.06535446008799      -1.03164260405421       1.97204698501720
H        -1.27939019956733      -2.45823172872086      -1.79653587726606
H         1.39284749074068      -2.43343488222292      -1.71901049784640
H        -2.29557500515871       1.13300837217372       1.45217588443231
H        -1.20389924004978       0.98506991119239       0.02507761878643
H         1.20676105422932       0.90081925156873      -0.31568624112580
H         2.12164592956316       1.28902911354116       1.18962078297627
H        -3.90930617239859       2.45798993244109       0.10862876616013
H        -2.87821673615326       2.25054753573508      -1.36697565961365
H        -2.26409633711919       3.19750302669649       0.04225089422511
H         2.95150848973406       2.02778214299301      -1.69259453788936
H         3.88417094402640       2.42271115548383      -0.18803864008266
H         2.24994518311514       3.13817462525095      -0.45467299498840
C        -0.49794254667178       5.77123463161447      -3.64627691209814
O        -1.71041452352357       5.89002445763407      -3.72792993397677
O         0.22554809600925       6.63209544500484      -4.12116481277967
C         0.10648705027966       4.58028878877900      -2.96345418466979
F         0.94799259100981       3.92065958654598      -3.84007232014375
F        -0.88034342814171       3.70581678240465      -2.54444309309971
F         0.83247876250428       4.99984504589539      -1.86470465739008
