31
C11H17NO2 optimized with DFTB in AMS.
N         0.81891624111969      -0.02942939500765       0.76264033220825
C        -1.57718416253537      -0.22158172667324       0.14915088554133
C        -0.42563752096388      -0.75423098224320       1.01414187402404
C        -2.91942576820775      -0.76783809350802       0.64337449008469
C        -4.07811463534460      -0.24557207908504      -0.20407912344821
C         1.15098548087998       1.03941352195916       1.66308824054966
C         1.41652495876975      -0.13158459389864      -0.46275921735021
C         2.51600069412208       1.58753415319221       1.40489413867186
C         2.55203999027353       0.53729777419423      -0.76383003131435
C         3.13836820283359       1.38447423053350       0.23366395082792
H        -1.41837574257281      -0.51337328894024      -0.89379889724040
H        -1.58819683867996       0.87066331157575       0.18911499959461
H        -0.26075538158083      -1.81731181304202       0.80544122064332
H        -0.66905333007060      -0.64269725099724       2.07391019670791
H        -2.90512631726607      -1.86258244871390       0.60765599028158
H        -3.06785666795870      -0.46819372285988       1.68612735172062
H        -5.02280476183529      -0.64243229523334       0.16828075172659
H        -4.11892910288222       0.84395693212729      -0.16381354661613
H        -3.95925069966919      -0.54971801403908      -1.24507744198431
H         1.01788550609471       0.70107421043121       2.70102722413469
H         0.96408081135328      -0.84381234079927      -1.14426030541610
H         2.92854762399176       2.21542079314468       2.18428466887439
H         3.03359530458576       0.40729120756531      -1.72281000035633
H         4.10998150531880       1.82488783984912       0.03841503887085
C        -1.68108886794374       3.47829529516159       2.04730185274062
C        -0.83538681755217       2.25608260345273       2.32780721060715
O        -1.07320987663467       1.47343328225528       3.21221448964619
O         0.18378570493638       2.15933886921635       1.48461953287713
H        -2.70221516731408       3.15736621035796       1.84830092962536
H        -1.68785755802042       4.10850960080148       2.93509544816186
H        -1.29239662794698       4.03467637522291       1.19856263090544
