43
C13H24F3NO2 optimized with DFTB in AMS.
N         0.00977277254677       0.29719302244732      -0.20345733607231
C        -0.72697622729904       1.17215370109516       0.76587589776660
C        -0.87399820004337       0.03903992960053      -1.38499017853023
C         0.43598993793407      -0.97677852457192       0.48946927768464
C         1.22259879744073       1.04118288051101      -0.72731196418777
C        -2.09743948514283       0.63255795230128       1.16708903740391
C        -2.20143920582943      -0.59888630316996      -0.99732907963785
C        -2.96446794762828       0.32627519716882      -0.05201297696714
C         0.84201054565400      -2.12489550744783      -0.43121075899112
C         2.06972979263573       1.75616116680710       0.32382107831996
C         1.32795477491950      -3.29068921925819       0.43167184154874
C         3.28092279686197       2.38005927645678      -0.37214694428752
H        -0.10068465819016       1.27517503745478       1.65328900471991
H        -0.83861080666809       2.15045226154850       0.28998251489274
H        -1.06334502401928       1.00664898646035      -1.85864341671973
H        -0.31864435656327      -0.58564101633351      -2.08535463815747
H         1.28830374667752      -0.71486404864704       1.12160778310504
H        -0.38889921528541      -1.29636719150974       1.12878925819545
H         1.84096637266927       0.30449182388794      -1.24810638002273
H         0.85337736131632       1.77341846874298      -1.45103958404180
H        -1.99155197540533      -0.26532652761717       1.78128242314375
H        -2.57730641015259       1.39744949635740       1.78340528333650
H        -2.77621859931168      -0.75685101747690      -1.91339901777038
H        -2.04392599876928      -1.57226258569258      -0.52730660847355
H        -3.89460219737848      -0.14905041028361       0.26762639932588
H        -3.21677878457426       1.25633761247749      -0.57171747343384
H        -0.00196474966657      -2.46068541985827      -1.04112964144927
H         1.65206380453615      -1.81109367115673      -1.09291958492090
H         1.49575668255800       2.54773270646245       0.81535257619841
H         2.41488468743992       1.05072417185506       1.08232246227502
H         1.62975308493366      -4.11604173254451      -0.21200826841289
H         0.53481681261888      -3.63564208913037       1.09744100474176
H         2.18357592750979      -2.98156941884514       1.03067928576059
H         3.91948159706897       2.85690481841529       0.37036222168138
H         2.96247468146599       3.13123575225910      -1.09670044044155
H         3.85848234428899       1.61470442214873      -0.88903757172097
C         4.02351669205496      -0.94563804943612       0.03344924751221
O         3.40982616870665      -0.99156625474910       1.10171900754600
O         3.61776760494725      -0.78922999186641      -1.12105724046954
C         5.61764220508901      -1.06205134402541       0.16402986106685
F         6.16107509306024      -1.81573890827750      -0.80496237787232
F         6.01107917118018      -1.58292236648626       1.33518916600369
F         6.18295000091283       0.16191997932617       0.07084685095187
