46
C12H23F2N3O4S2 optimized with ADF in AMS.
N        -0.73417818393407       2.25202192338618      -0.11900434854736
N        -2.58677387799375       1.14198495848089       0.09640498991182
C         0.54620381254787       2.72366286959021      -0.66061575916911
C         1.70565575799773       1.88217548289909      -0.13209320737760
C        -3.69959018057917       0.22563285756808      -0.17938320608906
C         1.61617411848036       0.40498558163016      -0.50783366333527
C        -3.46247469874904      -1.13879517790040       0.45796392712109
C        -1.58221545294050       1.42421647133332      -0.74114962093858
C        -1.21747460670883       2.51760996313381       1.14344887227846
C        -2.38193813344517       1.82029729042839       1.27817976779121
C         2.78639786635823      -0.42140899335058       0.02501175445026
C        -2.23035757184564      -1.86081078704867      -0.08237452092735
C         2.68056992772405      -1.89773693347819      -0.34913481687461
C        -2.03820348297566      -3.23570649750995       0.55158244967538
H         0.63043151879506       3.78559057446259      -0.39028037846540
H         0.46270958877727       2.67822059723427      -1.75610489839620
H         2.63738353958095       2.31684052794465      -0.53522681957117
H         1.76243690365520       1.98472303256065       0.96714964606750
H        -4.61375569210965       0.71528725621487       0.18229446947170
H        -3.79059810379021       0.15943981480030      -1.27219913585125
H         1.56764638065259       0.30807876364018      -1.60961230235485
H         0.67659130736934      -0.02335740259112      -0.11311036878561
H        -4.36524770642824      -1.74652034199249       0.26857465279414
H        -3.38338419150179      -1.02846984924251       1.55514875622389
H        -1.50590185747847       1.09643503950222      -1.76963449976037
H        -0.72072864812410       3.21052340044535       1.81005839742828
H        -3.09397392370644       1.77779029676758       2.09244972083863
H         2.82902069732429      -0.31700689226479       1.12453851059057
H         3.73327397784436      -0.00434705654922      -0.36318022149997
H        -2.32294811134858      -1.96166045248209      -1.17963176370572
H        -1.33144287058963      -1.24631971277517       0.10202088768630
H         2.68441162405029      -2.02932854383657      -1.44289917351907
H         1.74686404674909      -2.33639882887806       0.03855878102166
H         3.52101548239534      -2.47868979977541       0.06117312541340
H        -1.90466722705747      -3.15053973547233       1.64163482336142
H        -1.15455616583426      -3.74736999006391       0.14100790931733
H        -2.91407480359930      -3.87869283190086       0.37047450103250
N        -3.36798787933471       3.83960627687879      -1.27267323633826
S        -2.16035575394835       4.76573245030489      -1.79406616448408
S        -4.37042005465256       3.15084720120535      -2.31872600805648
F        -2.89723947281137       6.09505763894463      -2.40238832515115
F        -3.42810182871520       1.89477502599348      -2.97425104177478
O        -1.45111569233480       5.24338410848448      -0.61740115247815
O        -1.39997481003151       4.21685722934495      -2.90748407339232
O        -4.74242215918369       3.92517362904156      -3.48162633338712
O        -5.35921506984989       2.41904837369141      -1.54560507664464
