46
C14H26F3NO2 optimized with ADF in AMS.
N        -2.11321779978788      -0.31838237000725      -0.15018577749840
C        -2.42751969095736       1.11179271005466       0.27496459534654
C        -2.98830411560968      -1.28647046592553       0.61871665373145
C        -0.67056521749053      -0.63909055171973       0.21014078136887
C        -3.90645145055106       1.43751549532220       0.16775058174320
C        -4.47299432282018      -0.97912589536619       0.50540411720563
C        -4.77475436230698       0.45207397440589       0.94631864400712
C        -2.31042637200656      -0.49027090096748      -1.63235971964134
C         0.38671362029289       0.20276878955550      -0.47496319009060
C         1.77987718104243      -0.23109100276123      -0.01447157006951
C         2.87126248495958       0.61210262082194      -0.67048308999827
C         4.28495538270096       0.20266054523641      -0.26733618255890
C         5.34585351604219       1.06108565146807      -0.95317404478360
H        -1.83959040933965       1.77009796823666      -0.38520775038461
H        -2.08402538947938       1.18745241480523       1.32011257403138
H        -2.66764136731649      -1.21971408555057       1.67134818439572
H        -2.74529469803732      -2.29207195285790       0.24296703059028
H        -0.60783649666291      -0.53044025433743       1.30540925574640
H        -0.53720008804022      -1.70620547944547      -0.03397401656795
H        -4.03302899193207       2.46296128783378       0.55186881503011
H        -4.19877523600039       1.47728550907919      -0.89476666173381
H        -4.82348812006597      -1.14537845905131      -0.52666908869817
H        -5.00750423093766      -1.71184128448620       1.13234041162098
H        -4.56656153293453       0.55030344272870       2.02814580675549
H        -5.84363096526305       0.67844942408629       0.80581584487615
H        -1.82576072437958       0.36834587398441      -2.14511141532946
H        -1.87068773050853      -1.45341373619661      -1.92184162529280
H        -3.38286564952143      -0.49299362286743      -1.84933589459158
H         0.31235088603353       0.11034905374481      -1.56771160570894
H         0.24053092986461       1.27083161310675      -0.25368403562067
H         1.85871318420609      -0.14789452831179       1.08659512338350
H         1.94088838134454      -1.29727037361375      -0.26343296123810
H         2.70938860515541       1.67579677006601      -0.41516057509007
H         2.76632573859280       0.54488510633185      -1.76712295328765
H         4.44377707379900      -0.86130228024218      -0.52398777981227
H         4.39328998588334       0.27853700927089       0.83070904038635
H         5.26230795376974       0.97970331418600      -2.04866919792795
H         5.21748179878956       2.12341526713948      -0.69070857975198
H         6.36528704058795       0.76080360795929      -0.66572173218509
C        -0.60948558289700       2.65101949508712      -3.26496999708584
O        -1.24621265260358       2.11391243428085      -2.30463779708139
O        -0.39782075918333       3.83389302179766      -3.54692681333853
C         0.06754981869240       1.60320769203273      -4.22964507135234
F        -0.62650062467664       0.40996195945058      -4.33208040031829
F         1.32126250104733       1.25806662462761      -3.75536841259364
F         0.24001450350560       2.05262453520752      -5.49795240238741
