26
C8H14N2O2 optimized with ForceField in AMS.
N        -0.60482372050491       0.19197301408052      -0.36005439959077
N         1.58693449874522      -0.03444540548515      -0.06238919160940
C        -2.00039913452197      -0.11774609172702      -0.66183172354543
C         0.44284623094773      -0.65429279346295      -0.41106753992345
C        -0.10486951600906       1.38344036424457       0.02644859689143
C         1.25546176763734       1.24226439527551       0.21095336181115
C        -2.82874932832229      -0.14075434994854       0.61845361650911
C         2.91796693708252      -0.62100181499467       0.01956961745577
H        -2.40778660599880       0.64302845033766      -1.36246096162758
H        -2.07315053525052      -1.11105449820339      -1.15563171680097
H         0.37212043576405      -1.69949070490874      -0.68513663972903
H        -0.68396138077868       2.28687908012587       0.16359300924073
H         1.94879772612774       2.01313904025655       0.52107966271392
H        -2.43240465144479      -0.91113915439870       1.31383336895557
H        -3.88405988890274      -0.38625324076255       0.37670329321069
H        -2.79708652755658       0.85020620640744       1.11820964111179
H         2.89106526731727      -1.69439664805941      -0.26567510676915
H         3.60481192299295      -0.08427243898217      -0.66772179879790
H         3.29917156851842      -0.53713768889187       1.05894877385400
C         6.66333247313310      -0.04548857180125       1.15732501415040
C         6.38404627350830      -1.32704680874657       0.43912332749015
O         6.22688234674779      -2.35841448629750       1.07223657599692
O         6.30897898956417      -1.34642135131428      -0.77909936477595
H         5.80542801004592       0.20720144084993       1.81515686526346
H         7.57905829071526      -0.15664470887914       1.77558914049488
H         6.81693715504256       0.78394526828586       0.43425534931968
