43
C13H24F3NO2 optimized with ADF in AMS.
N        -0.96010959211468      -0.38440398917372       0.40897899745466
C        -1.39264946077283      -1.41877782438459      -0.64230446016540
C        -1.89228914876384      -0.63372191019734       1.61656551319491
C         0.46629375321743      -0.61345001693285       0.83600724665809
C        -2.71532149349100      -1.97326406208022      -0.13819867878998
C        -2.49323574636162      -2.00794397931146       1.37452238485230
C        -1.17491426107399       1.01304773065146      -0.14855810032990
C         1.50505209614964      -0.47805950940524      -0.26432647381674
C        -0.85933270886853       2.12855147978798       0.83506893447478
C         2.86942801170982      -0.96449106833554       0.23112096122968
C        -1.52168961134067       3.42258665190671       0.35596719458276
C         3.95757543322645      -0.82629881258503      -0.82916806043173
H        -1.44099768195872      -0.92387723146586      -1.62089770895628
H        -0.61739290482584      -2.19887404616099      -0.66281181105660
H        -1.30609860795839      -0.52435739819617       2.53697728110632
H        -2.70380296605014       0.11359795875170       1.53717404668186
H         0.48814584647726      -1.62701246241451       1.26869517591936
H         0.67013517820640       0.10125925814453       1.64648529222393
H        -3.53398647236270      -1.26895629792169      -0.36000752014876
H        -2.93607118704122      -2.95335085267795      -0.58388427445629
H        -1.80721487116431      -2.82432811937313       1.66445002612226
H        -3.43280119492921      -2.11284122506504       1.93502196128940
H        -0.55742761071030       1.09114575947626      -1.05621538902267
H        -2.24687846811399       1.05260056605146      -0.41126894888662
H         1.21474077860718      -1.06582619521210      -1.15196903511258
H         1.58781260947442       0.57383601309250      -0.58538147717629
H        -1.26923417579920       1.87600501945648       1.82649366421860
H         0.23088983673183       2.26740168762674       0.94822343318388
H         3.15551603059405      -0.39734149603305       1.13530161620016
H         2.78459075188371      -2.02212840359535       0.54004217404079
H        -1.16124934188387       3.71290276767821      -0.64375429644337
H        -2.61201285172985       3.27717064914869       0.30263762602108
H        -1.30524487241023       4.24842593666531       1.04866710008673
H         4.92436732857507      -1.19154780575425      -0.45294136786412
H         3.70472424515993      -1.40628743061115      -1.73104233424507
H         4.08686347368085       0.22535944061601      -1.12975557016601
C        -5.32313475644076       1.01423992935102       0.57389497267315
O        -4.07328978634263       0.89994779145341       0.36376054487770
O        -6.17320015340876       1.75394570804004       0.07193318709687
C        -5.83799469069099      -0.01291959499349       1.65059664055225
F        -7.09315322036257       0.23033786828605       2.09822485741856
F        -5.02299364734447      -0.05907197188271       2.76928221334054
F        -5.84126961557876      -1.30193917452113       1.14084616206775
