31
C11H17NO2 optimized with ADF in AMS.
N         1.43393159746662      -0.19423556568432       0.44592295103036
C        -0.90261565945391      -0.48643850564035      -0.38144653985971
C         0.04044826244228      -0.45923949811989       0.82449911280008
C        -2.26617498811717      -1.08187559634035      -0.04247865356074
C        -3.20360431763322      -1.09856619677239      -1.24807111406049
C         1.76324252770920       1.03311779620559      -0.05789361737036
C         2.30674137228309      -1.30363228488279       0.30752664244034
C         3.02839579917772       1.33498772636642      -0.46425485163868
C         3.71175764118530      -0.91193614011861       0.12201709720974
C         4.03434456510606       0.33295143061599      -0.31230441636465
H        -0.42846811672594      -1.07494169193896      -1.18335816575850
H        -1.02803015049979       0.53652293947214      -0.78047912332837
H         0.02728123390387      -1.43825825336880       1.32455557484270
H        -0.27875818840229       0.30258354641599       1.55652870989585
H        -2.11840703910819      -2.11128112775577       0.32946094698188
H        -2.72979030464419      -0.51039523644291       0.78260383313319
H        -4.18059307034972      -1.53551493067302      -0.99257010088723
H        -3.37784060842829      -0.07995632762713      -1.63020150418849
H        -2.77214960480516      -1.69369325906703      -2.06910044554142
H         0.95569324913158       1.76456128818327      -0.05796695153223
H         2.12071099418111      -2.04554382333586       1.09175888272994
H         3.26299552624725       2.33569968026035      -0.82113749287808
H         4.46690876454991      -1.68062491510368       0.28196961775870
H         5.07853726018604       0.58686942634054      -0.50854866009922
C         0.84904345024740      -3.91079536124517      -2.09215529789534
C         1.13277052278009      -3.19430758254847      -0.79607647495979
O         1.91050685878778      -2.11453323509303      -1.00143746821758
O         0.69069314554302      -3.55922315862114       0.28700169421848
H         0.40333882563364      -3.21560948886624      -2.81857333126604
H         1.79045496160804      -4.27408614169751      -2.52975817049221
H         0.17096320479787      -4.75149444681686      -1.90550903924211
