31
C11H14F3NO2 optimized with ForceField in AMS.
N         1.12338094347152      -0.00160607019410       0.48627047102029
C        -1.27346925403486       0.01353083939496      -0.08533413469204
C        -0.23565377816668      -0.00093107094577       1.04168812906196
C        -2.69792901898649       0.00533256224165       0.48105381546004
C        -3.73740724264301       0.02236297621374      -0.63535415083156
C         1.75818136639560       1.18550970965251       0.24049452863718
C         1.74781776796019      -1.18972541161405       0.21883880290987
C         3.05596384762134       1.20228575640117      -0.27649538457349
C         3.04539145850486      -1.20839369458710      -0.29848872760529
C         3.70190009776479      -0.00359680481292      -0.54452196746590
H        -1.12536721325892      -0.88071718918527      -0.72992585273659
H        -1.12583746930065       0.92433245920861      -0.70647263975599
H        -0.38834484887348      -0.89904831697104       1.68145618084378
H        -0.38127063575654       0.88680673639216       1.69740108881123
H        -2.85015754677571      -0.90635313261299       1.09919313556202
H        -2.85003647670743       0.89775227266023       1.12668785151122
H        -4.75645082960564       0.01090292458889      -0.19462300452579
H        -3.62736427484164       0.94074599917223      -1.25005704010228
H        -3.62129221028664      -0.87183441484776      -1.28396123759040
H         1.26237587747511       2.12755808624341       0.44344110670354
H         1.24376436617641      -2.13087971163198       0.40460598441354
H         3.55603456637234       2.14311432427643      -0.46697782538335
H         3.53715973348671      -2.15000290234343      -0.50616473621027
H         4.70806354591289      -0.00439020140120      -0.94340369110715
C        -3.27471442645746       1.00311714552068      -4.59997385074415
O        -2.91827462745869       1.94369826617052      -3.90796094913695
O        -3.49697912450397      -0.07860948485986      -4.07977259832117
C        -3.44041800362738       1.16678687179675      -6.08190776188519
F        -2.59634263660746       0.29170440205330      -6.74033690492528
F        -3.13634374271084       2.46124142853590      -6.46684957877114
F        -4.74813256493830       0.88822752128435      -6.43419056747067
