67
C19H28F18NP optimized with ADF in AMS.
N         1.74938884887663       1.17346171136715       0.48919672258041
C         1.27066986681943       1.87571654282568      -0.77295129239184
C         1.51993989935076       2.10814473782391       1.66609644768203
C         3.24438283542525       0.92782447299801       0.32733143081384
C         1.00278033988321      -0.12309076067633       0.72104073707923
C        -0.18533598735977       2.30254792245593      -0.69945108272212
C         0.07215560101667       2.55604870074100       1.79468066813512
C        -0.43377485169362       3.20951083193001       0.50782912217621
C         3.92627415074364       0.23605778579818       1.49419350231470
C         1.26833165592028      -1.21784840835022      -0.29752792767723
C         5.35682616286763      -0.14699302083354       1.09722525225973
C         0.36070153024990      -2.42359307362672      -0.03853094152682
C         6.14230489293733      -0.71674241769268       2.27378008133523
C         0.61367561515015      -3.55231546422857      -1.03478644852941
H         1.47189577403920       1.19852584842703      -1.61364546739921
H         1.92364119378209       2.75148201351273      -0.88227276579795
H         2.18363150136484       2.96695384165157       1.49773183935087
H         1.86424075857845       1.57691274758950       2.56317026067008
H         3.70094184169491       1.91144996654872       0.15668009365533
H         3.35471997691498       0.34406399186517      -0.59859239688258
H        -0.06512947265002       0.12531670442610       0.73797090927114
H         1.27768706928006      -0.45819363315640       1.73187239692351
H        -0.85496542101089       1.42558336714705      -0.68280397350784
H        -0.40930857928923       2.83862010993998      -1.63691957511116
H         0.03961587514301       3.27697610993398       2.62853832142230
H        -0.57567144644983       1.71364721915014       2.09209108434330
H         0.10067761312281       4.16140249816662       0.35656375866107
H        -1.50495196923987       3.44865920257599       0.59527547204318
H         3.38662029581616      -0.67483169723810       1.80695653261028
H         3.97426987673043       0.91532120209416       2.36143720659217
H         2.31978692082337      -1.54507281599971      -0.24999039905452
H         1.08608939445104      -0.85114065223088      -1.32153556880061
H         5.87045018915370       0.74467608848327       0.70971558761995
H         5.31926688537163      -0.88194370992194       0.27242018692625
H        -0.69571364770453      -2.10554295860348      -0.09557240096035
H         0.52448302214877      -2.79036457329574       0.99038005010312
H         5.66125308753071      -1.61971824163590       2.68416495041176
H         6.22203193062146       0.02767541341582       3.08141403920417
H         7.16476530877091      -0.98370479158342       1.96801633269233
H         1.65437544992112      -3.90672247800996      -0.97348565706326
H         0.43229004322219      -3.21444679515939      -2.06710091545854
H        -0.04692627870371      -4.41009923218019      -0.84002806549807
P         5.95301847762756       4.64831009952426       0.13894719468116
F         6.65747135828952       4.63121020653259       1.64683212069999
F         6.33068923302431       6.22984936606643      -0.16479328697133
F         5.51505695241386       3.03115251823104       0.35771222960446
C         7.75175250520091       4.14041106750627      -0.50061167897467
C         4.34797114496553       5.28649017598017       1.24165348104825
C         4.90304446027094       4.57530601165448      -1.61080905482698
C         8.23851328737289       2.67550900958425      -0.29926435351130
C         3.01224910142023       5.95192788553388       0.78652556089452
C         5.40588384714658       4.21555369132938      -3.04273021850643
F         8.67716355668146       4.91845451303475       0.15598986825972
F         7.92934354348960       4.39757054472723      -1.84251997762120
F         4.83802612549059       6.22877654076157       2.11542162650424
F         3.92328245091537       4.20390381536704       2.02139058310806
F         4.29164362026330       5.79490586259779      -1.78311495470101
F         3.87359857033959       3.64049493954785      -1.42420883969519
F         9.53378729042698       2.56680095529975      -0.70669518707216
F         7.50940981283511       1.79705021958026      -1.03866903601098
F         8.18345906440427       2.28818442378369       0.99678502959330
F         2.23697304851754       6.19266562265813       1.89049346005886
F         3.20954475473180       7.12741321248980       0.16745406329106
F         2.26190264766492       5.14828229434157      -0.02443816654091
F         6.21999396471328       5.15933160727110      -3.55159755805111
F         4.31948356911482       4.13710825017782      -3.87759736897861
F         6.01323759525779       3.00738963347434      -3.07540041267754
