54
C16H29F3N2O3S optimized with ForceField in AMS.
N         3.07891646196930       0.91994387437303      -0.01078971191196
N         2.92154692957828      -1.29267842258439       0.17068447516154
C         1.47098796286499       2.77798205051276      -0.26745102777838
C         2.84035389134691       2.33441337135214       0.27185084851152
C         1.01088855985991      -2.62089490799158       1.01311668573431
C         2.51158065279150      -2.60150987006574       0.67979625109147
C         0.31661020065531       2.08858089992518       0.47553442508257
C         0.14232211011762      -2.29845950749683      -0.21311379359695
C        -1.04963486211325       2.53355499117217      -0.05673375269704
C        -1.34817900870347      -2.28616459275431       0.14580124561823
C         2.83184485077793      -0.11357651364810       0.81776936976687
C         3.34652359964137       0.37622892220437      -1.21556210659536
C         3.25626400418356      -0.99561264966159      -1.10104832072184
C        -2.17763907936790       1.85274779433258       0.72936032259538
C        -2.19013085542034      -1.78344984653414      -1.03408372493457
C        -3.54157394976712       2.13086379292466       0.10852429220729
C        -3.66977885963833      -1.71189098060049      -0.66968045194199
H         1.38112354095213       3.87869074309723      -0.14039276879214
H         1.41008864117828       2.55192708692394      -1.35462420073190
H         0.80635840625078      -1.88515107847489       1.82139399133413
H         0.74468156667447      -3.62955349282227       1.39711912997435
H         3.64030795060221       2.94264334262684      -0.20287339665481
H         2.88874006178022       2.51749883259524       1.36802213272664
H         3.09520942682020      -2.83536257211583       1.59590864333140
H         2.73185111748979      -3.39073379798632      -0.07244794136062
H         0.38592487884223       2.32332891942144       1.56044855535452
H         0.39711209342357       0.98890220334229       0.34738142351233
H         0.32526259357775      -3.05555982248723      -1.00679505226848
H         0.42126278047901      -1.29991943626979      -0.61200731137847
H        -1.14859691526832       3.63717318148867       0.04084704807332
H        -1.12754935561606       2.26359040398888      -1.13330669302242
H        -1.51189555590276      -1.62131909653980       1.02192084455401
H        -1.66911488039581      -3.31479587051802       0.42132081540427
H         2.49946902595835      -0.00505203839160       1.84283932565139
H         3.52436305804790       0.93681988216758      -2.12395947023734
H         3.34699155233382      -1.71557042070884      -1.90426667695400
H        -2.01656306261439       0.75470713954288       0.74629984611948
H        -2.17411516148737       2.22028335938748       1.77855934219984
H        -2.06377328562078      -2.46665069185375      -1.90204090507148
H        -1.84935903084785      -0.76828045000317      -1.33464234860195
H        -3.73088107330043       3.22427404153869       0.06098133986307
H        -3.59006257326573       1.69855023134731      -0.91316539415065
H        -4.33293935098186       1.65712079362492       0.72687400650975
H        -4.24529973510737      -1.31701239846463      -1.53339546647404
H        -3.82341627194310      -1.03361878426244       0.19623077685853
H        -4.05367879383517      -2.72273341254705      -0.41639880124861
S        -3.75957827541651       5.85249724030909      -3.78942729111367
O        -5.23204057657533       6.23068505046942      -3.56987772943018
O        -3.05345129620793       6.49229402617440      -2.58471070546484
O        -3.33969820097218       6.75567884030511      -4.95871813087802
C        -3.44116340467279       4.07937417970594      -4.02421898354018
F        -4.09901563745084       3.63605895336560      -5.15571862317885
F        -3.89958113196373       3.37970802991051      -2.92566821933743
F        -2.08337472584066       3.86688524105240      -4.16939109246806
