36
C10H16F2N2O4S2 optimized with ForceField in AMS.
N         1.74692505773866      -0.02612022964604      -0.52257737494148
C        -0.63150383729263      -0.01385500417002       0.09130407265510
C        -2.07269838423073      -0.02854119127206      -0.42860473304707
C         0.38034884592008      -0.06260560048124      -1.05810637684218
C        -3.07074963534439       0.02463582495706       0.73391160400790
C        -4.50940255154983       0.02405434449543       0.22711538822170
C         2.37790086078189      -1.19414437870735      -0.19064967679177
C         2.36050657847237       1.17838892913136      -0.30902866428846
C         3.65241382869179      -1.17364366545116       0.38116482217460
C         3.63480706770876       1.23411540674269       0.26074340314515
C         4.27803454177237       0.04991626757726       0.61486179432037
H        -0.46921256685614      -0.89106619124251       0.75544542272142
H        -0.46290628927554       0.91181754947077       0.68426760673544
H        -2.24294287033014      -0.95604253516090      -1.01862624984622
H        -2.23368691571579       0.84900865355313      -1.09296385578548
H         0.22577573141531      -0.98788280409107      -1.65731212222627
H         0.21343554620393       0.79750973119799      -1.74468743975279
H        -2.90133947503915       0.94651463535744       1.33213010829962
H        -2.92223096301334      -0.85620293703242       1.39607959217779
H        -4.69086220970332       0.90977056344763      -0.41820609156822
H        -5.20711214920402       0.06441476679032       1.09000545349052
H        -4.71345031900161      -0.90130968679573      -0.35237950497679
H         1.89054773924066      -2.14860102589584      -0.35184096426751
H         1.85920375621248       2.10471198769290      -0.56364621033609
H         4.14487473978583      -2.09882519405932       0.65126207052337
H         4.11403262312163       2.18838101030325       0.43718379514490
H         5.25488486720613       0.08168727443610       1.07745807863614
N         7.68470513328054       1.76549350555990       0.23006177915681
S         8.06511465486983       1.96078725445764       1.80950462725411
S         8.21766902636775       0.47452207537671      -0.62306175727142
F         9.67206866689583       2.41223007501892       1.94090298458585
F         7.34267349119257      -0.88327538647049      -0.18505162967231
O         7.19714685366281       3.03153443129356       2.40665122776054
O         7.85994680133479       0.66957891672938       2.55075862202704
O         9.67141378131298       0.22855710350440      -0.33144555391083
O         8.03130228246764       0.73206519198232      -2.09109149891347
