48
C14H28F3NO2 optimized with ADF in AMS.
N        -0.28597829248261      -0.00111277181749      -0.03035474208162
C        -1.11572598422310       0.54806708828378       1.13431845988650
C        -1.16290680578436      -0.76094736526660      -1.00925275638927
C         0.75717600191010      -0.93885378755085       0.54041156387974
C         0.35858333491797       1.16129912188938      -0.77786293805587
C        -2.07170321858328      -0.44343114039518       1.77746531143509
C        -2.31604600949377       0.02072754922814      -1.61912992844733
C         1.76280811781945      -1.53136585962025      -0.43360682744541
C         1.35222933914852       1.98595437937626       0.02074869861590
C        -2.64625156754581       0.17256548990495       3.05558428963965
C        -3.11969962725662      -0.91047260374529      -2.52779095622387
C         2.71771068007232      -2.45032725305410       0.33163051789198
C         1.75540315948829       3.19877274262760      -0.82204317494832
H        -1.63354719898204       1.44823824436522       0.74226293795396
H        -0.37865261300913       0.88706722025608       1.87671936633129
H        -1.53477528633671      -1.64419168175031      -0.46695511512329
H        -0.49167400162058      -1.11402314801016      -1.80585309731342
H         0.20181496014563      -1.74429686639265       1.04192699535059
H         1.28354799091654      -0.36442192740210       1.31673631346316
H        -0.47338297989387       1.82184183787953      -1.07042370494341
H         0.83298110482331       0.72549436165498      -1.67146652172311
H        -2.90248615290901      -0.67683404540591       1.09256784281000
H        -1.57089393186782      -1.39462541565148       2.02971038745017
H        -2.96598964136775       0.44529654223771      -0.84056244116027
H        -1.94554687353136       0.87894988366031      -2.19897051297907
H         1.25563419070928      -2.11183892663322      -1.22037052331649
H         2.33857570977974      -0.73378830301073      -0.92956801017966
H         0.87606551827072       2.35126434429013       0.94401748294921
H         2.24678818429390       1.40181808147388       0.29830158146748
H        -3.35752975670513      -0.51908198999272       3.52903694184807
H        -1.84794246031774       0.39297919994252       3.78161801686770
H        -3.17292936417023       1.10990265488870       2.82973401229433
H        -3.94817171224256      -0.35974957871661      -2.99455904588882
H        -2.49479426748933      -1.32683033385866      -3.33474524031361
H        -3.54986583403450      -1.75375062704841      -1.96340121141935
H         3.45689893638483      -2.89786108673520      -0.34733127509488
H         3.26499502329241      -1.89556787190365       1.10988745919345
H         2.17028745100964      -3.26989509551301       0.82353188814611
H         2.47464278734932       3.82781154093492      -0.27842750875310
H         2.22326618892669       2.88934146946502      -1.77051209913525
H         0.86462087510215       3.80316394973007      -1.05222281700673
C        -2.96738016827374       3.62363576527685      -0.45746175603002
O        -1.86200429212351       3.00805139549416      -0.33770030272021
O        -3.40493877476895       4.36304326854068      -1.34399884718495
C        -3.93426459975381       3.33723906555403       0.75007933615758
F        -5.03863190126698       4.12060999459487       0.78443753362580
F        -3.31296124851531       3.47266635519158       1.97227323083814
F        -4.38773159761119       2.02009958603325       0.70706501688144
