43
C13H27NO2 optimized with ADF in AMS.
N         0.16422080749265       0.48983433210762      -0.30839152987661
C        -0.19637262739793       1.49201351188712       0.78045261936393
C        -1.09278628879719       0.00067973140158      -0.99346282810583
C         0.94586616378112      -0.64859884167560       0.33008245482491
C         1.00074945392638       1.19377718691133      -1.36140643872193
C        -1.23824617572826       0.95564733093825       1.74760107274745
C        -2.09966895156771      -0.59694583162905      -0.02569945735113
C        -2.48608447930487       0.42150110050845       1.04736849013616
C         1.41784096894368      -1.74138735150058      -0.61193644205945
C         2.27777614463457       1.84602516929958      -0.86117375728656
C         2.26748240390510      -2.72874046518532       0.19582771601799
C         3.12741877209861       2.27485902961786      -2.05679686638003
H         0.74806730171093       1.70864425547913       1.33599028351315
H        -0.57334680183948       2.38147400715870       0.24765100241848
H        -1.52835504120848       0.88322156391282      -1.49030775043051
H        -0.78352055981892      -0.71387057700475      -1.76941457034972
H         1.82828082770867      -0.19273780950071       0.83409791077384
H         0.29681646557567      -1.07155886087466       1.10647433744978
H         1.22156959977088       0.43583618633364      -2.12821108456499
H         0.32894479454671       1.93968266936987      -1.81851607315101
H        -0.78280787668559       0.18322524406576       2.38889722776326
H        -1.49140720198731       1.78640335470066       2.42694357030433
H        -2.98024755579061      -0.90749239440858      -0.61263629328153
H        -1.69218509994340      -1.51251592278835       0.43532813753715
H        -3.17807281797655      -0.03132898416919       1.77559099707743
H        -3.02640257376509       1.25856537910264       0.56607834460214
H         0.57880192964549      -2.27391603064587      -1.09422199636591
H         2.04720289558650      -1.31626906730221      -1.41105689044064
H         2.03544679920390       2.72128095985213      -0.23792846733696
H         2.84933049746890       1.16373913213988      -0.20502034003739
H         2.67919206090717      -3.51262573154410      -0.45628419807461
H         1.66494238232847      -3.21806260557294       0.97765210403568
H         3.09331873559881      -2.19187742434610       0.68853504656164
H         4.04242834158705       2.77546722270310      -1.70925330398052
H         2.59013193111968       2.97429365995111      -2.71902151353762
H         3.43267251609327       1.40400580611667      -2.65974015242327
C         4.01646618702644       0.81312257020856       3.81621359744594
C         3.13089164047308       0.87637830831794       2.56599929937704
O         3.50455097518644       0.16488142704262       1.57738060728948
O         2.11024735188020       1.62861717937896       2.61428495467414
H         4.31718098832233      -0.22598728932484       4.01562839897612
H         4.93896269696573       1.38696213764635       3.63332552256820
H         3.50473342372297       1.23773999742053       4.69062306939797
