40
C12H26ClN optimized with DFTB in AMS.
N        -0.71133977817123       0.23886573711800      -0.12716512620034
C        -1.29356110402913      -0.44853405778416      -1.32643998788581
C        -1.82492594888833       0.58403316397687       0.82626442379004
C         0.30036631111975      -0.62319213413692       0.58024601350288
C        -0.09346034005968       1.51977264582432      -0.62795871704898
C        -2.11128469865349      -1.68543674610995      -0.97262052524596
C        -2.66487609424185      -0.62222466112862       1.21849352593313
C        -3.24022008007926      -1.32716541038442      -0.00766893862828
C         1.56037330041776      -0.93673402609872      -0.21848169201099
C         0.61523872882710       2.37073578591672       0.42448033001315
C         2.47407084389682      -1.82215888628645       0.63992397743517
C         1.18731409803122       3.61920166609445      -0.24411557979623
C         3.77081328313425      -2.15213060737824      -0.09496506182688
H        -0.47185280729001      -0.70894240267255      -1.99668114591072
H        -1.93406986458354       0.28176982921383      -1.82971767621166
H        -2.44711273824157       1.33467399074214       0.33101407057520
H        -1.36233794048060       1.00907105977551       1.72496996095905
H        -0.20005542192647      -1.55440451950879       0.84771972697329
H         0.55421357077088      -0.09841100201652       1.51036759056758
H        -0.90633421747854       2.09697402044747      -1.07905925749238
H         0.60492407179864       1.24628939379375      -1.42373323456605
H        -1.47276192146853      -2.45889869356243      -0.53844772735486
H        -2.52465896019355      -2.08171287317811      -1.90428991512160
H        -3.47706939210640      -0.25603225659515       1.85152941546999
H        -2.07337514620051      -1.32082913899731       1.81470394471878
H        -3.95618096802069      -0.66934619844964      -0.51167241133971
H        -3.76719371409962      -2.23488387495911       0.29560146102299
H         2.09797687057504      -0.02017439633134      -0.47394858550376
H         1.31954236646752      -1.46015493218661      -1.14957121115566
H        -0.07923509615286       2.66739406231067       1.21148323455095
H         1.42484939529922       1.81055438507929       0.89373581106121
H         1.94922553980292      -2.74936945045917       0.89200354455477
H         2.70431346742493      -1.30146560377176       1.57402559896655
H         1.69184957156713       4.22881013439186       0.50413268634159
H         1.90833349668414       3.34914754148590      -1.01734400089415
H         0.39326519351468       4.21316534109119      -0.69908175657193
H         4.31768690918035      -1.23927689987583      -0.33448144358460
H         3.56180469667050      -2.68611424243037      -1.02328276579800
H         4.40221191912826      -2.78038331488526       0.53292904011783
Cl        0.12612972875481       1.02367148372541       3.33495294359441
