32
C10H16BF4N optimized with ForceField in AMS.
N         1.74201111256094      -0.03039716121527      -0.51408394744941
C        -0.63448921776416      -0.01448137054104       0.09367095833411
C        -2.07475326584408      -0.02871662106229      -0.42786050171250
C         0.37826140947262      -0.06782802147078      -1.05415100067074
C        -3.07411374332651       0.02650563145025       0.73415964682030
C        -4.51342417281953       0.02471265482131       0.22792763563122
C         2.37574568705880      -1.19814391871360      -0.18784600414498
C         2.34888957791119       1.17506289948386      -0.29082566831880
C         3.65531948753573      -1.17709101843427       0.37088773851483
C         3.62425042554210       1.23179327948111       0.27329381704018
C         4.28110418867378       0.04711917054361       0.60258017659465
H        -0.47326164535642      -0.88996427575150       0.76074470295001
H        -0.46516048369027       0.91264239096194       0.68459781843432
H        -2.24424200050310      -0.95707028285654      -1.01706366367848
H        -2.23352877457061       0.84872214941651      -1.09317910216991
H         0.22541116374500      -0.99481745522930      -1.65128551561454
H         0.21524008193396       0.79027029410526      -1.74442006712518
H        -2.90397250949564       0.94954503091834       1.33075737948647
H        -2.92458198637967      -0.85300373700726       1.39819914621792
H        -4.69627178102440       0.90978867471074      -0.41783325522468
H        -5.21070994592378       0.06547997877839       1.09116331589349
H        -4.71796211542683      -0.90128859030488      -0.35033882566609
H         1.88862264385016      -2.15283537019300      -0.34892853007791
H         1.84253778147580       2.10098847786622      -0.53765630676917
H         4.15281310785429      -2.10294317854644       0.62905995779927
H         4.09366192668154       2.18811653973114       0.46029478687786
H         5.27025517923216       0.07788951507988       1.03990558430423
B         7.19462698929744       3.29796691356689      -0.03620057704045
F         6.88522879238676       2.72699184590563       1.22685496428535
F         8.48024522349456       2.86090952860369      -0.45113093294883
F         7.18723471710130       4.71401639438889       0.07000664212349
F         6.22705319031687       2.89060544841248      -0.99200400509605
