63
C17H32F6N2O4S2 optimized with ForceField in AMS.
N        -1.07990537944401       0.81237461718733      -0.16838215086712
C        -1.56065106995827       1.85286863623239       0.79895205069437
C        -2.05535595984709       0.72629248136976      -1.30422974189371
C         0.22198496737205       1.27364194905357      -0.76114707860613
C        -0.92812910540805      -0.50508378444773       0.54353112372074
C        -3.00793403791844       1.63638133958068       1.28666313024748
C        -3.50264354094570       0.44549057768148      -0.86888305994609
C        -3.97849985627125       1.50901736320944       0.11571780590292
C         1.41979450969899       1.36647307638461       0.21481934152604
C        -0.34227879560250      -1.66264006243204      -0.30238435831780
C         2.66739228360844       1.87191746213144      -0.52254105586899
C        -0.21280735087871      -2.93707504325849       0.54176362103373
C         3.88444099723250       1.91896317891521       0.40764439963135
C         0.36991823532156      -4.09004278675906      -0.28388867469993
C         5.11803641792091       2.43182748619595      -0.33006643948110
C         0.48910692935784      -5.36081902644381       0.55250121020662
H        -1.51339665573074       2.86620341129194       0.33705317811497
H        -0.91648591060827       1.88405298472441       1.70397720246872
H        -1.74989367597547      -0.03657773485178      -2.05012931558420
H        -2.07175965288260       1.68942490582428      -1.86686407253973
H         0.09138244731588       2.28096391506569      -1.22088840432552
H         0.51802799823881       0.60996605531712      -1.60274835293504
H        -1.90110986420962      -0.85609427601828       0.93832170276422
H        -0.29674502920794      -0.37888116547431       1.45019848848969
H        -3.31094569857960       2.50717587697992       1.90757855820400
H        -3.07700484914550       0.74164386967513       1.93953742890274
H        -3.60224593603864      -0.56797634997283      -0.42911931274787
H        -4.15828811914460       0.47051385920592      -1.76608278020223
H        -4.06052904091122       2.48828240918061      -0.40572222217084
H        -4.98640911787886       1.23720888866313       0.49640499074541
H         1.19585893668849       2.07071628808319       1.04180395876808
H         1.65307098137356       0.37011924200782       0.64248555158780
H        -1.00568541580475      -1.88745554086145      -1.16174979966177
H         0.66598579910289      -1.40325143466325      -0.68344134643964
H         2.46993766685316       2.89172531779793      -0.92099529061207
H         2.88944456467709       1.19594631573734      -1.37779650954707
H         0.45191963750528      -2.73655937235139       1.41093620340274
H        -1.21613341520079      -3.22942716496589       0.92320119985636
H         4.09711521298941       0.89974533840604       0.79777107462584
H         3.67411439029707       2.59003393949183       1.26876444152494
H         1.37848845500491      -3.81025652610929      -0.65936359240661
H        -0.28662679341136      -4.29526464467772      -1.15740215882898
H         5.98622832737048       2.44847992971033       0.36182108864977
H         5.35936408100834       1.76707956846387      -1.18690957864987
H         4.94235977414325       3.46288722787767      -0.70446753401141
H         0.91489899258352      -6.17660843646959      -0.06880448593414
H         1.15926519671952      -5.18961980273496       1.42177787217130
H        -0.51115468554021      -5.67792928516288       0.91727692193865
N         1.09771610511187      -0.33549183121572      -5.30952717451197
S         1.29624275817914       1.24793377405410      -4.93223167776793
S         2.34386118117046      -1.30708580623053      -5.74999072396695
C         1.15327562188819       2.23368648391319      -6.40852207682602
C         2.86155999892434      -2.27083545058672      -4.34430399930892
O         0.21614475096191       1.66983513595146      -3.97786543658758
O         2.64354371860207       1.47523636075942      -4.30421847864142
O         3.50423434766499      -0.49297023862064      -6.25181587307092
O         1.88233540827224      -2.24310310963081      -6.83140688589223
F         1.31983170270321       3.56826270794614      -6.09102164117412
F        -0.09826300371270       2.04977308275046      -6.96495458437128
F         2.11961284162149       1.85638548333231      -7.32050168600415
F         3.90992831995954      -3.09499594900364      -4.70764158297431
F         1.80604376120013      -3.04347892836698      -3.89845563120358
F         3.27226675881336      -1.42785062894329      -3.32946869539921
