38
C12H18F3NO3S optimized with ForceField in AMS.
N         2.37092545738595       0.02492856979464      -0.53175694034035
C        -1.44349209283660       0.04335372847702      -0.67586685614663
C        -0.04013192332833       0.02061577923379      -0.06482657427114
C        -2.52050674210619      -0.01038469656176       0.41145472492912
C         1.04058139081674       0.07360469839409      -1.14955218875196
C        -3.92219050502541       0.01222457290762      -0.20768184203151
C        -4.99945321646541      -0.05600192525058       0.86993912914346
C         2.96338547260981      -1.18487403523030      -0.29089485266158
C         2.98820462843279       1.18692639465623      -0.15524685338953
C         4.20452382358812      -1.25190792535923       0.34597245409218
C         4.22979845464780       1.15492952859657       0.48369539637512
C         4.83785902230483      -0.07345428409411       0.73696493658865
H        -1.56166652119961      -0.83458823497967      -1.34748100683339
H        -1.57071631663059       0.97393057106704      -1.27021968283084
H         0.08260964602840       0.89286633915513       0.61407736153798
H         0.08711710367085      -0.91072008982391       0.52949758983684
H        -2.39528119617219      -0.94217562511135       1.00630625160333
H        -2.40325721141717       0.86304770496208       1.09048487661949
H         0.93004072614437       1.00429786202838      -1.74817425876014
H         0.91228023935061      -0.77768716057084      -1.85541344181554
H        -4.05788523873407       0.94679998386240      -0.79496533786106
H        -4.04381098243704      -0.85508972027015      -0.89291740290223
H        -4.91609362381471       0.81567208130495       1.55352728202853
H        -6.00248036030858      -0.04081166574656       0.39413499222972
H        -4.89825647674079      -0.99402002916709       1.45655690303664
H         2.47208519588728      -2.10686582513015      -0.57912970000108
H         2.51676769587505       2.14596926988829      -0.33590387073810
H         4.66651017003367      -2.21074844695748       0.54171501328845
H         4.71169965123440       2.07522910550796       0.78706038487798
H         5.79538238328762      -0.11233438890988       1.23961136730485
S        -1.64964565190547       2.44349493041463      -4.12923566537369
O        -0.55929471200542       2.78303081828511      -3.10292558858180
O        -1.52516172840922       3.58108659821484      -5.15314729537974
O        -2.94850376712700       2.78782103051492      -3.38560436679045
C        -1.57534445079123       0.76838838514613      -4.82944989951837
F        -1.74540927688599      -0.16479045567403      -3.82746485397550
F        -0.34832747134716       0.57261555575145      -5.43251894633840
F        -2.57756152181007       0.61575568937383      -5.76744435319932
