45
C11H20F6N2O4S2 optimized with DFTB in AMS.
N        -0.32543365610852       1.01988855840877      -0.35095816015850
C        -1.36107347797335       1.35668934143746      -1.39152403117226
C        -0.56337870892414      -0.38071300462124       0.11740603925841
C         1.01089830268590       1.13110084719737      -1.03747602521025
C        -2.78717395776337       1.20665024022461      -0.88810188315112
C        -1.96798281362994      -0.56149250198396       0.68519265972285
C        -3.03282100839326      -0.20203868927382      -0.35134812134790
C        -0.36394846971117       1.97327433808209       0.79450729871037
C         2.21967360829789       0.82122782607127      -0.15803773654386
C         3.49407923044081       1.06365867733742      -0.96753056609531
H        -1.18614341047872       0.68090623917889      -2.23292691139492
H        -1.18302981390682       2.37919488434407      -1.72057766492635
H         0.18354294245825      -0.61412072323270       0.87857274682257
H        -0.41258963300435      -1.03939754832783      -0.74257957525949
H         1.07733241374695       2.15881949478018      -1.40288521826110
H         0.98886537414152       0.45462653377470      -1.89541089606090
H        -3.44933814582343       1.40265284084579      -1.73504454497239
H        -3.00490045345354       1.95667052043058      -0.12438034853432
H        -2.09241110309974       0.05068888068560       1.58210184195838
H        -2.07239203600777      -1.60909035827100       0.97942796597778
H        -4.02284624728463      -0.25959308681054       0.10602896778805
H        -2.99524185534837      -0.92207742930688      -1.17537130840910
H         0.19028208553806       1.54925817910760       1.62892995687035
H         0.08732852761541       2.91039907999181       0.48052478801356
H        -1.39148309019162       2.15693235388474       1.09168096347498
H         2.22862436072558       1.46816342771486       0.72232739591769
H         2.19782364642453      -0.21874694078196       0.18041720410387
H         3.51924470303972       0.41758437905051      -1.84537802124742
H         3.54334430973068       2.10166459530249      -1.29601439331146
H         4.36636193127533       0.85004277081153      -0.35106275328095
N        -1.69148254491287       4.43429472295761      -2.66221249557251
S        -0.96655897783242       4.76012698722947      -1.27666946755323
S        -0.93150371802181       4.90781260095734      -4.00621925968812
C        -0.91534404609189       6.61984673134687      -0.98413014119273
C         0.09861900061355       3.42103578040097      -4.53604741423570
O        -1.85387387522455       4.25856963164538      -0.24072068241585
O         0.42154471500016       4.32051878285592      -1.17539281713825
O         0.01730309068100       5.97277666703126      -3.82335615834429
O        -1.91629697686710       5.00864807218446      -5.04462555211486
F        -1.21391923369787       6.84041633599083       0.28784749107312
F        -1.80557428803845       7.22547596137280      -1.74434215217578
F         0.28467478463611       7.09876734362882      -1.22823230865522
F        -0.57371786525296       2.68302440439356      -5.40609762436258
F         0.38082881784609       2.63320103109627      -3.48460969788875
F         1.23877478494513       3.79872907435603      -5.08026926201660
