23
C7H10BF4N optimized with ForceField in AMS.
N         0.16372316600887       0.00026221915675      -0.38034767390917
C         1.61057673122531       0.00105717314272      -0.62739501811704
C        -0.50322793630045       1.18765523441783      -0.24872908312511
C        -0.50217854239760      -1.18768448087069      -0.24868750010404
C         2.37230094241342       0.00488095158520       0.69249681962352
C        -1.87208267970868       1.20487504052023       0.02905237631473
C        -1.87089557226485      -1.20608170028230       0.02950232090110
C        -2.55702928003308      -0.00091043262844       0.17147997780002
H         1.90691570943889      -0.89666924691811      -1.21210223844310
H         1.90276877263723       0.89108596935846      -1.22753477262483
H         0.02358425982834       2.12926105038678      -0.34886634795231
H         0.02557144858252      -2.12878811975417      -0.34829047756430
H         2.11303641373015       0.91025861259337       1.28084439648992
H         3.46462327014807       0.00453526838068       0.49385401111758
H         2.11468248203077      -0.90038796602271       1.28228891576091
H        -2.39532718625619       2.14597173479503       0.13877849850532
H        -2.39308351551630      -2.14763552342765       0.14004380356451
H        -3.61595025363760      -0.00137600079162       0.39454319417879
B         0.02327786267075      -0.42547714867482      -4.48185956600482
F        -1.09319359573219      -1.30314628961522      -4.50490238493368
F        -0.38111390346588       0.84361104706499      -3.98775918418787
F         0.54006852177439      -0.28039912405841      -5.79699027284740
F         1.02941141052409      -0.96439489855790      -3.63911623474272
