56
C14H28F6N2O4S2 optimized with DFTB in AMS.
N         0.76591492759392       0.53518336544751      -0.23197146811296
C        -0.46276023039746       0.77465083807848       0.59978731402651
C         0.40330600153976       0.08130836689636      -1.62374419132599
C         1.58962795566230      -0.55570002074831       0.40714861242711
C         1.54254473245722       1.82704898811619      -0.31590194990347
C        -1.45485900384889      -0.38634958818763       0.66134546067278
C        -0.47447904671542       1.04115508550956      -2.42349826230443
C         2.99669469988649      -0.72621703553806      -0.16570676716580
C         2.04833536295579       2.35925405206420       1.02439553705021
C        -2.59151002397569      -0.02441171744815       1.61782659087391
C        -0.70087640316252       0.45347463157261      -3.81668989949643
C         3.64020751324306      -1.97594921221781       0.43195776459244
C         2.96304420253775       3.56052750124202       0.78116159729119
H        -0.95668310955701       1.66119940870461       0.19500665058218
H        -0.12070300216674       1.00574292581748       1.61101844637689
H        -0.09069196873599      -0.88842335971637      -1.52714355590881
H         1.34269245551927      -0.06670758300237      -2.15550767925777
H         1.03004885219916      -1.48585703678782       0.27949123904170
H         1.64608958484126      -0.33796056204228       1.47650216109679
H         0.88078922370856       2.56769430536730      -0.76782851537190
H         2.37460901557370       1.65505370254974      -0.99960877790872
H        -1.87419283832751      -0.58881784073883      -0.32668931282408
H        -0.96281668591665      -1.29488353552822       1.01704160647565
H        -1.43717393413014       1.19661854886582      -1.92815826108369
H         0.01993497105450       2.00804232607392      -2.53416406066305
H         2.96283387175767      -0.82543370877924      -1.25178803017469
H         3.61634070420904       0.13946824094186       0.07207638422105
H         1.20759455441210       2.66760578295739       1.65372302161598
H         2.61035971933148       1.59261502793520       1.56278294712134
H        -3.30777600611833      -0.84389450006533       1.66108805467812
H        -2.20636519025549       0.15554381009772       2.62190548957179
H        -3.10838603582740       0.87253425311474       1.27569673079959
H        -1.33483073778710       1.12395610533395      -4.39535412419382
H         0.25206959026942       0.34234899944302      -4.33311039328723
H        -1.18592785880132      -0.52140708565600      -3.75260420368071
H         4.64736639597964      -2.08352735454502       0.03220529869044
H         3.70218599687653      -1.89630684239591       1.51804864232944
H         3.06587952243213      -2.86777148154393       0.17759057183574
H         3.27049906593371       3.98232628363978       1.73763470113326
H         3.85072847005010       3.24912792272077       0.23285948459947
H         2.44477599105247       4.32865715099592       0.20847098385158
N         4.73405407194264       2.26247791278389      -3.96070317015686
S         3.15177491397477       2.27636280207554      -4.15610096219133
S         5.32453054845434       1.65059019378436      -2.60371912970658
C         2.54718124788292       3.92457538271393      -3.50333528716939
C         5.47765408866657      -0.19481794374892      -2.89217927711398
O         2.86347641778022       2.33704770085108      -5.56125432776617
O         2.39141147532250       1.32921393239646      -3.35005646983216
O         4.46830643576388       1.73688194739449      -1.42972619922235
O         6.68198546928097       2.09678168906634      -2.47475069978986
F         1.22770692264915       3.98697366742238      -3.67315863051069
F         3.10891503763747       4.94149233860880      -4.12752160299295
F         2.78966025432339       4.03428715199959      -2.19950538269958
F         5.91027244089636      -0.76997223077293      -1.77318025674477
F         6.33318170396283      -0.45151453681711      -3.86371163719804
F         4.30510053690861      -0.73749735250279      -3.20080533639692
