38
C12H22N2O2 optimized with DFTB in AMS.
N         2.31240842714041      -0.88753897023631      -0.58441914200634
N         3.84471289083092       0.39228706447278       0.25274287891180
C         0.00877849627171      -1.69225946948872      -0.11730725556534
C        -1.10914590329324      -0.64757336767385      -0.05942577969602
C         1.06989454438802      -1.34990258670290      -1.18242066988054
C        -2.13841313083732      -1.00503636459096       1.01726568495555
C        -3.20490103904967       0.08634708715253       1.14760067758303
C         2.61861725463638       0.40526883819121      -0.31614628195367
C         3.20990263741875      -1.70803206099745       0.08823501383842
C        -4.22545562251048      -0.25703680731083       2.23157834710414
C         4.15855396315492      -0.90937476120562       0.61242569796623
C         4.49915947222034       1.56247644355243       0.80950593515699
H         0.49295731741962      -1.76293364474416       0.86017900061972
H        -0.41957243010615      -2.67254363755341      -0.34898551561304
H        -1.60405584607442      -0.58564226197072      -1.03515393736086
H        -0.67419083399262       0.33067869911664       0.16332099096007
H         0.71162967036546      -0.56578537503840      -1.85560903142957
H         1.30619297806273      -2.23545938181220      -1.78099856685176
H        -2.61697635716868      -1.95818764436463       0.76552937942109
H        -1.62864033755115      -1.12987282700849       1.97856378776506
H        -2.72156134110849       1.03782842827308       1.39344582849248
H        -3.71968524895248       0.21106808557868       0.18858280726999
H         2.27961002579033       1.21807690238917      -0.94066060705287
H         3.09707622308560      -2.77793041661647       0.09595849727282
H         5.03830972061328      -1.13605928053085       1.18760064752191
H        -3.73366925265510      -0.35749102941484       3.20027825055401
H        -4.97605742591063       0.53067153829512       2.30340084838143
H        -4.72916811940750      -1.19681322664574       1.99973089635801
H         5.57420579896600       1.48626036780115       0.64506264773053
H         4.11099411733911       2.45173383574589       0.31518676026209
H         4.28710771160784       1.60874065177625       1.88048216365951
C         0.36654551825887       1.11770580333374       3.20389687423191
C         1.57651353034525       0.81878724398252       2.29800127049893
O         1.32686280011792       0.95810074522442       1.05227187078767
O         2.63114264219023       0.48081135096888       2.81598194375426
H        -0.38377543419730       1.69662409257006       2.67014147589218
H        -0.06409227033572       0.16736623527835       3.51711520021513
H         0.70350994342733       1.65638471960364       4.08716068074503
