35
C11H20N2O2 optimized with DFTB in AMS.
N         1.18466483476416       0.46319527079941       0.35410394283260
N        -0.80988700417222      -0.11044118382994      -0.27396597552218
C         2.49116851151223       0.43119066996193       0.99589421147067
C        -2.05300603120696      -0.86512041710522      -0.37121603274960
C         0.25950513322860      -0.51866948739986       0.45305596937796
C         3.60955651359047       0.54744601385363      -0.04188119285295
C        -3.26301968444934      -0.07069666714193       0.13098318327250
C         0.60489361937215       1.57695284174667      -0.23250404047846
C        -0.63446093948521       1.22188606790183      -0.62458336312411
C         3.58271802084356      -0.61591631036613      -1.03199561904117
C        -3.11141021121718       0.37996883073647       1.58154159916221
H         2.56420304552735      -0.51577169172486       1.53694864095528
H         2.55182584320111       1.25711371610589       1.71264959141064
H        -1.92313426526249      -1.77166846159978       0.22628663226741
H        -2.20962965106822      -1.15161942238730      -1.41795416630004
H         0.53922990532071      -1.55656446486245       0.55768989809447
H         3.51358319493751       1.49427646379299      -0.58268697954443
H         4.56538313899137       0.55714244052030       0.48970558135015
H        -3.42420836852458       0.79867867098443      -0.51403316443060
H        -4.13849427018346      -0.72085822216865       0.03609544954125
H         1.13608000105568       2.50709372957109      -0.33262073177554
H        -1.39182971419102       1.77853028523812      -1.14712492996832
H         2.63520311268947      -0.63234777699701      -1.57234053019460
H         3.69965865430447      -1.56490024604243      -0.50754305510403
H         4.39309520102958      -0.51325829815656      -1.75337489518203
H        -2.26534907520020       1.05819006834887       1.68391902512662
H        -2.93793852588835      -0.47824393252933       2.23020791734860
H        -4.01670981108537       0.89321153069865       1.90604647240769
C        -0.14795452956155      -1.24358906528549       4.51610172063298
C         0.32761429299034      -1.21156127641590       3.05777607685168
O         1.31233378321905      -1.86062269331141       2.72330317721691
O        -0.37526463882287      -0.46525757725559       2.29623422447886
H         0.25275576798607      -2.12307735535222       5.01490303916717
H         0.22024869961143      -0.34751983135316       5.01401810312303
H        -1.23525442605633      -1.24586599257508       4.55555907407938
