46
C12H26F6NP optimized with DFTB in AMS.
N        -1.65425651044240       0.59154054512511      -0.11743319109450
C        -2.14556714665848      -0.74257168086181      -0.58637003735926
C        -2.63790848193738       0.95651774297202       0.95760730845838
C        -0.28158857148459       0.47539870353766       0.48774385981197
C        -2.62717288756150      -1.46190124075505       0.67288730232657
C        -2.93374216945862      -0.34864065647510       1.68663071561737
C        -1.69163842639743       1.58176318268889      -1.24161865963555
C         0.83805296405264       0.11492872973333      -0.48187623317343
C        -1.21526146945002       2.97178270247127      -0.84796325947764
C         2.14912983900047       0.03661124273711       0.31292696994551
C         3.33795959409547      -0.25039359547730      -0.60719045821426
C         4.64104229566198      -0.34004965413777       0.19364506158735
C         5.83732792850988      -0.61012199111157      -0.71708416420042
H        -1.34737978394883      -1.26896559217105      -1.10831189220748
H        -2.97212516591809      -0.56812567913350      -1.27939481797728
H        -3.53262678783959       1.34680397312316       0.46624183357552
H        -2.20867250195586       1.71698656240525       1.60596781947556
H        -0.34809052238522      -0.27409576195084       1.27711559912624
H        -0.05941210103464       1.43233555914377       0.95545467096567
H        -1.85444601082029      -2.13278287531284       1.05300196225969
H        -3.51315222454938      -2.05741147656608       0.44597029392451
H        -3.97628135842701      -0.37139618393662       2.00712418484418
H        -2.30034746141723      -0.43998696765576       2.57047599430089
H        -1.07671837298165       1.17838022354547      -2.04996832966018
H        -2.72810591194986       1.62441320032456      -1.58824504334421
H         0.64989350169015      -0.84587783616503      -0.97147070647437
H         0.93706972528964       0.87714795596542      -1.25978675565229
H        -1.35168117296058       3.62851721271285      -1.70691160545371
H        -1.78655563646750       3.36601575569755      -0.01072106083069
H        -0.16190703021692       2.97233679622907      -0.57706562578041
H         2.06738144728810      -0.75216225421485       1.06756935029384
H         2.30726973003292       0.98316000608915       0.83772781929319
H         3.42170733827977       0.54697312699433      -1.35400956172695
H         3.16965249337181      -1.19220113459108      -1.14205539509304
H         4.79906852702002       0.59853487368901       0.73436932959971
H         4.55775208540470      -1.14282689004367       0.93372524970997
H         5.95013529140117       0.19150886347744      -1.44848287881162
H         6.75068236442878      -0.67081935771743      -0.12506636474892
H         5.70684082195354      -1.55205064091143      -1.25222614871568
P        -0.04993041082435       2.59867976869441       3.49173147361377
F        -0.72843385120979       1.07531727730782       3.21118386392641
F         0.69852326409346       2.02252337028177       4.81194981551200
F         1.23500758242737       2.14389025341359       2.53760751247906
F         0.59360985104780       4.07678457005753       3.68371720519678
F        -0.83101868016666       3.12787308053017       2.08289112431310
F        -1.37743819748573       3.00479982694108       4.34919068957464
