43
C11H17F6N3O4S2 optimized with ForceField in AMS.
N         0.99631204657165       0.36373950114841       0.48437591553844
N        -1.00299958691573       0.36581159778435      -0.48631829238463
C         2.24353488028514      -0.11294430038716       1.07663551217669
C        -2.25585615612548      -0.10773814787663      -1.07027690646333
C        -0.00502533418114      -0.39544214886031       0.00089267864780
C         3.40991080731247       0.04430537277011       0.09715154295005
C        -3.41740735018474       0.06494904826560      -0.08601817811030
C         0.62213678701418       1.64539633379321       0.29518948134292
C        -0.62251712027755       1.64669645527829      -0.30300532960188
C         3.19696808367901      -0.75976126933629      -1.18468608693151
C        -3.20755857926549      -0.74525386749499       1.19279279928242
H         2.14471878429586      -1.18300309691012       1.36437104824631
H         2.45767625778549       0.46384776668223       2.00259959541382
H        -2.16442808223059      -1.18039755552985      -1.35100168972613
H        -2.46910595633234       0.46324014002631      -1.99990148536932
H        -0.00768917366586      -1.47853334971637       0.00446587805577
H         3.54871753877312       1.11755425411244      -0.15637082956474
H         4.33375219613654      -0.31900010380832       0.59278923545752
H        -3.53475412701183       1.13946839926900       0.17211926079584
H        -4.35506341646642      -0.27628407756028      -0.57520436760232
H         1.20859318965725       2.51167427543184       0.57301728512572
H        -1.20566274654844       2.51446986024863      -0.58272092284869
H         2.32537339418648      -0.36734329180462      -1.75018682303523
H         3.02738554701523      -1.83142183591738      -0.94582342451299
H         4.09699821985071      -0.67575551801176      -1.82864960123163
H        -2.33126155646740      -0.36074114890589       1.75657772674444
H        -3.04588041711494      -1.81748008295444       0.95076856730252
H        -4.10475915727511      -0.65674452546312       1.83989712789042
N         8.20741727301373       2.04181164783682       2.16346819964573
S         7.67239251222923       3.40993531024747       1.43600039665000
S         7.93541259912451       0.54711502105384       1.54761332129884
C         6.06947731169582       3.83296696677574       2.08784614381938
C         9.38866565376960      -0.00201523045025       0.67856107800539
O         8.62653049552256       4.53187214132471       1.73239084277960
O         7.57315129212997       3.21450299291132      -0.05140011425146
O         6.76964900536827       0.56652037547923       0.60014460211740
O         7.65424248922015      -0.40763685583897       2.67311040356368
F         5.62275885841832       4.99938853790793       1.49733462674387
F         6.16209909357613       4.01894224026283       3.45375767625758
F         5.17305501857123       2.81501292970036       1.82492594476549
F         9.16489201771184      -1.25933769112846       0.15114644077494
F        10.45764921802965      -0.05563270198590       1.55204806772818
F         9.67813248601890       0.87867705043046      -0.34583101838655
