33
C9H17BF4N2 optimized with ForceField in AMS.
N         1.01091188268121       0.35026025413542       0.46992260984057
N        -1.00856053729385       0.35514420971975      -0.45965629456437
C         2.26132468985136      -0.12720819766533       1.05687152377796
C        -2.25765293233752      -0.11557040357382      -1.05480493246482
C         0.00144829467584      -0.40734913781581       0.00051760855065
C         3.43587308144348       0.07580441694597       0.09355130168759
C        -3.43307750919406       0.07233406774287      -0.08956761931751
C         0.62807083031668       1.63196585296695       0.30120043997811
C        -0.62634375510964       1.63498363256720      -0.27588419692161
C         3.25519222683962      -0.71412049884782      -1.20204401063435
C        -3.26570750449089      -0.75778211626087       1.18262561271451
H         2.17494681760334      -1.20698764701378       1.31107666431684
H         2.45716650040134       0.42281915912585       2.00273862061432
H        -2.16947909303212      -1.19115354471880      -1.32549413368870
H        -2.45329078983535       0.44846894378336      -1.99244830091368
H         0.00196541756651      -1.48981281246025      -0.00628309338152
H         3.54969101011122       1.15576180277827      -0.14344515752945
H         4.36797843342197      -0.26568644929292       0.59320833947909
H        -3.53551747278737       1.14617250702533       0.17853101990000
H        -4.36759869284470      -0.24347337524100      -0.60140067311329
H         1.21411479841427       2.49768164984450       0.58068782689565
H        -1.21253639932396       2.50357450497852      -0.54599201533046
H         2.41180866546771      -0.29929858994901      -1.79390106369454
H         3.05273636046733      -1.78270462278675      -0.97941317760037
H         4.18036180621915      -0.64790511718448      -1.81193973002129
H        -2.40241313878992      -0.38826421518967       1.77584619270744
H        -3.10523557517909      -1.82771000520938       0.92970870326397
H        -4.18123478094682      -0.67433716110601       1.80487491325226
B         4.95013539610078      -4.97904619487600      -0.20749514242137
F         4.58917190921257      -5.80857880960120       0.88727560878951
F         5.53006865015505      -5.77317960711193      -1.23222631966900
F         5.88875092713027      -4.00499266798425       0.22544513094565
F         3.79193730638559      -4.33047595122493      -0.71077639234777
