58
C18H34F3NO2 optimized with ADF in AMS.
N         0.20409323666485       2.12019621842902       0.04871608545005
C        -0.34455992681713       3.10591017793971      -0.95844445905366
C         0.84020187757409       3.05450273923857       1.07192235783135
C        -0.90605337490371       1.33496040798912       0.70993798830964
C         1.23663879464436       1.21326497050052      -0.59415672426564
C        -0.91508267618830       4.25886111859229      -0.12541660885249
C        -0.16454442579068       4.18730017070264       1.23312530478924
C        -1.62569602538114       0.35003922126485      -0.19524875008674
C         1.79116633322631       0.15033915923241       0.33394930662335
C        -2.71597228697352      -0.39565543296589       0.57729807905605
C         2.99391859431495      -0.54669984209373      -0.30690828358645
C        -3.45364693629578      -1.40883921812524      -0.29562596063229
C         3.67705221749679      -1.49590457691423       0.67573170426880
C        -4.54715683471398      -2.16577596751105       0.45432588121624
C         4.96504592476665      -2.09347591174512       0.11583105001351
C        -5.27786008165345      -3.17375020984174      -0.42887005849608
C         5.66358218078961      -3.01821501665080       1.10888145553978
H         0.52205562446904       3.42857715157620      -1.55401247271522
H        -1.06210123330657       2.60534407755505      -1.61966736546784
H         1.12480989553614       2.50783043430413       1.98250632429126
H         1.76924305821151       3.42374608482496       0.61772882583984
H        -0.43936157362297       0.82082530111471       1.56223409994336
H        -1.61264874964533       2.07446736584553       1.11327174877694
H         0.76825405739166       0.78564702607867      -1.49490581312997
H         2.04756766164029       1.88769041714192      -0.91051376207201
H        -0.74899662212666       5.21397605247361      -0.64451307443002
H        -2.00243215612169       4.15138070688166       0.00696662323645
H        -0.86135987533445       3.99909703444534       2.06372779064829
H         0.37980271934895       5.11088315574001       1.47410149970046
H        -2.08884242205985       0.86909489383384      -1.05186183563194
H        -0.91500557200755      -0.38579378751551      -0.60526998602295
H         2.14595133910678       0.62480770498144       1.26732510928337
H         1.02209418402618      -0.60097928325796       0.58553341796584
H        -2.26270128936248      -0.91551023735064       1.44097857245704
H        -3.44082079318486       0.32809385143244       0.99326283025281
H         3.72533067393568       0.22184673262974      -0.61112551323914
H         2.69369819164337      -1.09254464759604      -1.22190046340092
H        -3.89999879321901      -0.88783997896652      -1.16370664906842
H        -2.72569184249375      -2.13228445414752      -0.70813098045775
H         3.90686938400545      -0.92876419279541       1.59567197159338
H         2.98161873977450      -2.30912736382474       0.96032910076230
H        -5.27152825930942      -1.44078421998225       0.86838857689853
H        -4.09933632830891      -2.68623137131724       1.32042601737205
H         4.74467224744671      -2.64448589904867      -0.81772006538752
H         5.64519742210862      -1.26716391672595      -0.15847598033023
H        -5.75708479612038      -2.67384061176370      -1.28634345127853
H        -6.06125616455968      -3.70317364345525       0.13417871257402
H        -4.58063243865675      -3.92773278254677      -0.82843730242785
H         5.01232210619043      -3.86111952690254       1.39184350783555
H         6.59156967877300      -3.43380273735562       0.68658132864393
H         5.92408057636392      -2.47217037318699       2.02943613050153
C         3.62854219409960       2.80345197681618       2.21045717319628
O         3.10996996127758       1.74615695385215       2.65611749403953
O         3.27155754980593       3.99795374661022       2.30062147224299
C         4.85355743758815       2.58277512816950       1.25356188699254
F         5.82713643039635       3.52525075599186       1.36393549478954
F         4.39493413244210       2.65062349879906      -0.06773177554218
F         5.46193983379844       1.36458757829975       1.36871451404004
