31
C9H14F6NP optimized with ADF in AMS.
N         2.14600953588686       0.51290387988667      -0.40272051572612
C        -0.23661121219275      -0.07702498323244      -0.04819227597588
C         1.11593680128640       0.17457177489183       0.60719403564311
C        -1.30487213432016      -0.45170257123676       0.97823288316106
C        -2.66165307003426      -0.69931281308502       0.32225229168183
C         2.50732378565153       1.79795661889310      -0.59686801455630
C         2.74986837972252      -0.48727304252834      -1.07500049652114
C         3.50500396951803       2.11856805965905      -1.49374017536144
C         3.75520743922171      -0.21573619273608      -1.98230596129015
C         4.14688290284445       1.09937136530480      -2.19184823032073
H        -0.13953565698412      -0.88899029096793      -0.79098628718051
H        -0.55004734447984       0.82428343432121      -0.60518257570890
H         1.50325573220427      -0.69725303870951       1.15428005445587
H         1.07877899395348       1.01258047101086       1.31751460496467
H        -0.98217102055156      -1.35292263292563       1.52791015661328
H        -1.39316822243279       0.35471225963922       1.72766617917263
H        -3.42374843437027      -0.96559919473206       1.07040616693761
H        -3.01245346367173       0.19748224774951      -0.21208144580539
H        -2.60332702374528      -1.52337043206888      -0.40627136431993
H         1.99246883274682       2.53698765108519       0.01253120153584
H         2.44133857519720      -1.49704697161262      -0.81877439239176
H         3.79926110172778       3.16094167471873      -1.60990997778345
H         4.25892094667421      -1.04802419331577      -2.47107576772415
H         4.97084862895522       1.32730313791306      -2.86940137528153
P         5.14426762002579      -0.81087304428890       1.56945386206334
F         4.57825764248953       0.65960149248866       0.99454887959845
F         6.64625821579871      -0.17939815474761       1.71579652166464
F         4.74016095267170      -0.34867487065327       3.09260651617317
F         5.64639245366512      -2.27367791302609       2.10263691323975
F         3.57844619107020      -1.44047281435846       1.36959120280819
F         5.46799913617124      -1.26285615053654      -0.00536948756605
