46
C12H26F6NP optimized with DFTB in AMS.
N         1.19015809796169      -0.25618857586532      -0.35595003822862
C         2.06591928064975      -0.04446906433765      -1.56453389346449
C         2.03253406283131      -1.04572160217000       0.62334213133142
C         0.81394693299906       1.06285883679815       0.25587609594125
C        -0.01218294310960      -1.04884970795801      -0.77260989596850
C         3.00577474181578      -1.23633996527728      -1.59748120146299
C         3.28473732715812      -1.50766845186082      -0.12171670288061
C         0.02346481777350       1.97617103565161      -0.67650652324188
C        -1.05389501429530      -1.25624534882157       0.32656951099020
C        -0.00393787469312       3.39087248961376      -0.08324757760895
C        -2.10677020663675      -2.26541140565487      -0.14874846633950
C        -0.81287650278427       4.34085552258023      -0.96247473343868
C        -3.18301434957428      -2.47713240731339       0.91372121683757
H         2.62481925927789       0.87944240582322      -1.41576689207459
H         1.44482482364893       0.04240786202233      -2.45544799359277
H         1.44448841558577      -1.88469543788039       0.99592748978983
H         2.28898406179650      -0.39433078862162       1.45790002841091
H         0.24975943943735       0.85547205404057       1.16741988806173
H         1.75097314076016       1.54746117899510       0.53063170884619
H        -0.47251425802749      -0.52701924061325      -1.61500113983419
H         0.35738624333775      -2.01470671611570      -1.12749473016958
H         2.53461282538500      -2.09803785485252      -2.07873102576773
H         3.91927118701695      -0.98048687479806      -2.13414307266736
H         4.14299566118624      -0.91820892771558       0.20562077270840
H         3.48651351951914      -2.56264952655877       0.06799617959427
H         0.49941163628845       2.01563146561881      -1.65918807809300
H        -0.99892539592725       1.60713723010114      -0.80694228164370
H        -0.58543448948668      -1.62760858466820       1.24169297790575
H        -1.54785447022306      -0.30984802191394       0.56071698427759
H         1.02313396790583       3.75684043255817       0.00363596514126
H        -0.43923664170152       3.35680601987267       0.92085286762593
H        -2.56945186754697      -1.89915783224814      -1.07099862503370
H        -1.62037275011166      -3.22039186031888      -0.37310050645230
H        -1.84492187658894       3.99826399441232      -1.05354359760569
H        -0.37661173399125       4.40159217508889      -1.96010469732507
H        -0.81469037526323       5.33804074107342      -0.52322999663026
H        -3.69393545010792      -1.53896504974030       1.13253840106503
H        -2.74080352481214      -2.85618080229413       1.83562922495172
H        -3.91754090646229      -3.19876904902757       0.55743508031489
P         4.62710937099417       2.28766272796844       0.16376786636876
F         5.44368594805456       3.29457159225263      -0.81158868033845
F         4.76155413814625       1.06128537372998      -0.96649435448806
F         5.98900327430848       1.77561855894767       0.88910228022189
F         3.72832183836006       1.22052698225722       1.12010912640784
F         4.40074476951096       3.45189643556903       1.27955971732702
F         3.18148976423417       2.73501160645060      -0.57775975836880
