62
C18H23F18N2P optimized with ForceField in AMS.
N         0.21569087520822       2.28347755263682      -0.16130010450762
N        -1.86947662504324       1.51065123742904      -0.15560664814428
C         1.59053679362086       2.53530508621944      -0.59041793904251
C         2.56082232135028       1.53356875263847       0.05156751944429
C        -3.08955715264709       0.82780449691157      -0.58327529011279
C         2.20687326817224       0.08402942858260      -0.31245910890483
C        -3.20812939000849      -0.55342375863035       0.07550156413321
C        -0.76690732399996       1.72926033835418      -0.89815704036493
C        -0.28540190790469       2.43121128305711       1.08180601296377
C        -1.57981591391245       1.95318186260840       1.08493286808631
C         3.23551568820405      -0.90044647539301       0.25095394283958
C        -2.07235133787176      -1.49262877912033      -0.35580653343812
C         2.83742712096047      -2.34127232710506      -0.05925011830202
C        -2.21472968362014      -2.86660562199599       0.29109496816508
H         1.88066936858425       3.56930814107698      -0.30487365145584
H         1.66419623607472       2.45933942039520      -1.69778909292166
H         3.58911583755280       1.76359288649976      -0.30321847114187
H         2.54324991800275       1.65723972379192       1.15645588538797
H        -3.96995997198687       1.44670917651155      -0.30634068553222
H        -3.09587698506231       0.71146677619786      -1.68961612169693
H         2.16438589249547      -0.02098305459144      -1.41902255145382
H         1.20818645822581      -0.16593115394579       0.10539921130124
H        -4.18325272204025      -1.00009999336772      -0.21746655839742
H        -3.20325472506975      -0.43859328640110       1.18141743895683
H        -0.66061265993089       1.43448429399237      -1.93495482566083
H         0.26114362412020       2.82081715988429       1.93079086563883
H        -2.24588619476800       1.89915718276751       1.93621265958208
H         3.30787667534771      -0.77615640549639       1.35314443082175
H         4.23330207419301      -0.69605784860192      -0.19455998914435
H        -2.08200879035776      -1.61073967321988      -1.46122958445399
H        -1.09226369696473      -1.06488317316778      -0.05665685578532
H         2.73743186899504      -2.48777510893316      -1.15580406328215
H         1.87189171180013      -2.58792520498990       0.43247700684731
H         3.61679729254915      -3.03469557362447       0.31955388204966
H        -2.17846452580029      -2.77661159963374       1.39776421030475
H        -1.37949159867521      -3.52014339320055      -0.03850520009645
H        -3.17496971909078      -3.33745997314087      -0.00875001580528
P         5.86949747523420      -1.45661592061632       6.54341533059846
F         4.61066584038806      -2.27916142774773       7.38766545821545
F         5.18428363515408      -0.10263337914286       5.72673691275106
F         6.56632025154062      -2.67942538912005       7.53292402398140
C         5.56447067151449      -0.16550931435764       7.94948902261925
C         4.92018309326542      -2.43995164420058       5.17307206937038
C         7.66137013833245      -1.41673509217823       5.85112593802076
C         5.99152195749619      -0.59927953638334       9.36908870115857
C         5.32846432482209      -2.18895086375986       3.69971768788990
C         8.78962995991756      -0.97604472761271       6.80214080859116
F         4.20572562885423       0.12130418994509       8.01289056931141
F         6.20926255837027       1.02583602326841       7.65706346823513
F         3.56190472876711      -2.14614308163400       5.24878111716960
F         5.07621854587588      -3.79669949578712       5.41397605969009
F         7.68426909131318      -0.56036380924527       4.76472228911265
F         7.99937947919065      -2.68489339345275       5.40840977944986
F         5.64498725340142       0.39668326879342      10.26495979430451
F         7.35367212465944      -0.78549501682925       9.45193248123528
F         5.35237376590403      -1.76239465356033       9.75755295301503
F         4.40906391042143      -2.81668219383989       2.87879809305047
F         5.32936876673650      -0.84455786329907       3.37962623799275
F         6.56462882637437      -2.72739389401636       3.40936632276291
F         8.55168726372342       0.27305898255442       7.33280936040888
F         9.97017545984671      -0.90508903432063       6.08350938095569
F         8.97610112199370      -1.89608976805296       7.81729263793188
