34
C12H19NO2 optimized with ADF in AMS.
N         1.20765221178825       0.10556871122408      -1.13079577728371
C        -0.95686077322820      -0.02954157562540       0.09947626134870
C        -2.47040889993286      -0.16888313738762      -0.04068560577993
C        -0.24238391839138      -0.02593551353341      -1.25224293993839
C        -3.19943657824344      -0.17424267447094       1.30337608876821
C        -4.71272400907992      -0.31403800861147       1.15079758118151
C         1.97046311309795      -0.99981071080364      -0.83224319290280
C         1.76763325522710       1.34775165331036      -0.94283915322376
C         3.27115432099744      -0.91411839980388      -0.48045201836413
C         3.06121814050517       1.51921326482536      -0.59503930682387
C         3.99441976599829       0.37594022454682      -0.49989692505566
H        -0.55692881627762      -0.85628525839130       0.71385630701386
H        -0.71169272304268       0.90448987038113       0.63664448324500
H        -2.70588691427513      -1.10328880892589      -0.58483593050263
H        -2.86105040051513       0.65921755156215      -0.66206547422534
H        -0.45167878186282      -0.95723220376822      -1.80390260070455
H        -0.60515534123463       0.80376911667944      -1.88070528177590
H        -2.96166890766416       0.75922744351993       1.84540619858437
H        -2.80680504975690      -1.00111285070682       1.92274763591824
H        -5.12608301856777       0.51657803934380       0.55617138077890
H        -5.22388722113391      -0.31505860959564       2.12572050122353
H        -4.97047793194100      -1.25379330985393       0.63619164075518
H         1.44419096921198      -1.95256794134682      -0.88686877663830
H         1.08606026236040       2.18740372035653      -1.07806682030064
H         3.81818525601224      -1.82573068779974      -0.23991084339183
H         3.43986067330458       2.52923447735712      -0.43897717720917
H         4.70073764162818       0.47685539366479       0.33874596420280
C         5.78155752457404       0.40395902996534      -3.86475302869969
C         4.61305121543267       0.31332288375486      -2.90822792153979
O         3.45457730196657       0.19224677106810      -3.26364977664502
O         5.05269211508516       0.40880399170345      -1.63100425759440
H         5.54807436483461      -0.16226443447539      -4.77446717649574
H         5.92789248946732       1.45879514667508      -4.14386505593799
H         6.71014542715565       0.03822263906178      -3.40806242708706
