32
C8H18BF4N optimized with ForceField in AMS.
N         0.00596085367786      -0.00313063639872      -0.00005601743430
C         0.92751287091396      -0.83963506428762      -0.82970319150314
C         0.90475288080917       0.84986576576364       0.83711842737594
C         2.33525549165323      -0.29766417827993      -0.67070827103334
C         2.32206516982195       0.33113120477656       0.69341321015262
C        -0.82500897518851      -0.87624423697363       0.89181032711383
C        -0.83353134976179       0.85537273552662      -0.89814680092115
C        -1.80789493619532      -1.79990335279736       0.14900813176854
C        -1.83621375306850       1.76347035904431      -0.16227072994608
H         0.65133517180622      -0.86346099882699      -1.90849168441589
H         0.95252925951592      -1.90100479121237      -0.49246768285553
H         0.61772097438560       0.87137545622745       1.91310787966424
H         0.91599573466236       1.91084017128261       0.49759985220926
H         2.53145626975768       0.47767072818394      -1.44395597849415
H         3.10042677685958      -1.10135627993185      -0.74209434302608
H         2.52416385914177      -0.44005619695034       1.46913201241953
H         3.06909419795231       1.14913967102636       0.77305061934859
H        -0.16341214715094      -1.51709069771196       1.51964626726339
H        -1.40925327788112      -0.26321095203176       1.61267347041618
H        -0.17856505644991       1.50669939869610      -1.52215078132612
H        -1.40264064579713       0.23225688103182      -1.62240508568455
H        -2.27251288894088      -2.49552426155571       0.87864860114303
H        -2.62612176787447      -1.21967521530619      -0.32331833988776
H        -1.29674499094107      -2.40713876243858      -0.62533541146170
H        -2.30712544361746       2.45136259442460      -0.89517796597863
H        -2.64788846741068       1.17038812556139       0.30532905430831
H        -1.34027634861781       2.37943946101799       0.61509343609997
B         6.73981075558598       1.32422336528916       0.83790900996406
F         7.02880034985605       1.33836544146304       2.22839276994761
F         5.53035520497723       2.02778931528276       0.59895009649233
F         6.60278025895402      -0.01870509692731       0.39614392633180
F         7.79784511036470       1.95123469023197       0.12780274194920
