49
C15H32ClN optimized with ADF in AMS.
N        -0.68050193971025       0.71019670997719      -0.53504253999275
C        -0.66891781440234       1.97319154877171       0.31621609827419
C        -1.92608288640570       0.69297736982892      -1.39452714561763
C         0.51126369588251       0.73234839605077      -1.48207642066273
C        -0.62901037022104      -0.50337804263567       0.38499393305421
C        -1.93490689613819       2.12221168689315       1.13858744374231
C        -3.21258364704112       0.84483758583602      -0.59806647989305
C        -3.18790481499493       2.10415055682480       0.26738336966077
C         1.88381363971911       0.70888080257850      -0.81657006252340
C        -0.33015007387018      -1.81914239585804      -0.30443302466932
C         2.56361834870194       2.07717895164102      -0.73783009569253
C        -0.42847818995839      -2.95596939948868       0.71565288675957
C         3.89243128695758       2.00275620807563       0.00941268664905
C        -0.09351519311331      -4.31545830737609       0.10845955075211
C         4.57413931296423       3.36348964479118       0.11054028628383
C        -0.18999216985925      -5.44757330459858       1.12653888660722
H        -0.55835493215595       2.80881890919649      -0.39458749362906
H         0.21179551252128       1.88753770362842       0.99097709486517
H        -1.90967238876535      -0.24450630270845      -1.96819566797322
H        -1.81484532693038       1.53305646485073      -2.09925161867578
H         0.37942508785044       1.64519424615017      -2.08636861116443
H         0.36237321406317      -0.12966937183432      -2.14799498004706
H        -1.60646342240218      -0.55220229954247       0.87967101797837
H         0.12356186722263      -0.26067000168340       1.17140963885417
H        -1.84581270801128       3.07577073472669       1.68405882681368
H        -1.96652792898846       1.33836434192015       1.91397867854369
H        -3.38377251962145      -0.04729648707598       0.02735493070997
H        -4.04255277741694       0.87998260569871      -1.32373416890776
H        -3.18755511827968       2.99396674976314      -0.38961081177487
H        -4.09918968417259       2.15803711577606       0.88455381470574
H         1.82143784444244       0.31451482869510       0.21653739024863
H         2.52466413966252       0.01628917647011      -1.39092290910683
H        -1.02936875049587      -2.02194279990601      -1.13665656896745
H         0.69125477827179      -1.81491912581131      -0.71979335575363
H         1.90845426554487       2.78101354091805      -0.19705823739702
H         2.71493210234044       2.48742889445172      -1.75613471291056
H         0.25486596333914      -2.74125647385643       1.55661385312484
H        -1.44997491023225      -2.98536036970447       1.13872343813921
H         4.56089398397159       1.28150224211661      -0.49685964242875
H         3.68257710185669       1.60728177500914       1.01964162273230
H         0.92781322426402      -4.27964441753597      -0.31268265002574
H        -0.77541019896431      -4.51517127249875      -0.73886460684903
H         5.52979236964097       3.29426517278954       0.65242379561021
H         4.77866848771265       3.78520785900691      -0.88790053291680
H         3.93274315679029       4.07541734430329       0.65498598368342
H         0.05843728712797      -6.41928157982640       0.67357461155757
H         0.50242504092647      -5.27582442127646       1.96560401162729
H        -1.20870052960346      -5.51711326798903       1.54082390245016
Cl        1.44320192748010       0.85356637716659       2.59839909615174
