30
C8H13F3N2O3S optimized with ForceField in AMS.
N         1.10961389600827       0.36522489286704      -0.37271786090484
N        -1.11420927789080       0.36733148480136      -0.37945961171512
C        -0.00146251210468      -0.24124811479685      -0.83448386083662
C         2.49383352046168      -0.02278035297024      -0.63251027122168
C        -2.49783173918314      -0.01475598201511      -0.65178675004022
C         0.68640300262929       1.39231136036462       0.39179668400867
C        -0.69350476179683       1.39345678598434       0.38781340221088
C         3.09294510546968      -0.70095424234569       0.59396144667727
C        -3.11031272839006      -0.69281854206448       0.56736353473104
H        -0.00024209052534      -1.11916505691619      -1.46870636266850
H         2.53711369196064      -0.72783350419884      -1.49119823182679
H         3.09129367411251       0.87689196485435      -0.89582453849645
H        -3.08970908267321       0.88739670082888      -0.91815083040039
H        -2.53630179070766      -0.71892784117170      -1.51142954332146
H         1.33073870846705       2.08847117112321       0.91287020040569
H        -1.33949676151812       2.09057962985708       0.90542890573097
H         3.08891219824881      -0.00518525463242       1.45948402164041
H         4.13993890212522      -1.00220578012751       0.38000066651593
H         2.50399477245047      -1.60728184908732       0.85131922760867
H        -2.53687196911084      -1.61013294123094       0.81183464672422
H        -4.16088323951313      -0.97810553497829       0.35021756541344
H        -3.09511710045954      -0.00711904231082       1.44085971637472
S        -0.41278634372905      -4.42296151326146       2.67757742481565
O         0.23861484401682      -4.21715823417420       4.05285958997803
O         0.77449479508640      -4.31356056314048       1.70952003813037
O        -1.16671748960865      -3.10514958088148       2.45301738085821
C        -1.41688690882775      -5.92769288212410       2.51300410230569
F        -2.46265143101643      -5.88682718438542       3.41470299797796
F        -0.63368244273221      -7.03624560374421       2.76964132109719
F        -1.92143129394940      -6.01002281352313       1.22964457202702
