62
C16H36F2N2O4S2 optimized with DFTB in AMS.
N         0.72175138772801      -0.33888406551884       0.53184257825699
C         1.93878371140704      -1.15716190339106       0.89607082859870
C         0.13817565182659       0.22637926631625       1.80442355310812
C        -0.26224824506402      -1.23756045362572      -0.17299715770085
C         1.07563121223834       0.80399330215661      -0.37582432158112
C         3.14899376473902      -0.35329782027919       1.36626911905291
C        -1.17343778039640       0.99055569165852       1.65442395328290
C        -0.86135680711115      -2.34019842157768       0.69564016694357
C         1.74453825117858       0.40840606827799      -1.69073005703025
C         4.17417815688085      -1.30997833004773       1.99033717774305
C        -1.69962873614850       1.32702448620485       3.05777428879609
C        -1.74792326583513      -3.25179803269655      -0.16041799151357
C         2.16761314690111       1.67666710733231      -2.44388244106669
C         5.33706709845889      -0.53272678833133       2.60124194123603
C        -3.01608579851525       2.09442941132306       2.98136211858859
C        -2.34740813955334      -4.36262163587327       0.69962683299327
C         2.83356222930538       1.32896505278840      -3.77309543800891
H         2.20244744526405      -1.75867653943651       0.02298382468040
H         1.62719012227081      -1.82959130607461       1.69775795345330
H         0.89468419478800       0.88413456768275       2.23557273184010
H        -0.00549337027696      -0.61315608627601       2.48307407661573
H         0.27131993744998      -1.68847653072787      -1.01309762471622
H        -1.05363307274047      -0.59975008361524      -0.57480958433794
H         1.72956788537962       1.47006199808696       0.19148156705014
H         0.14772874032402       1.33838599091442      -0.59128070490916
H         2.85637363023595       0.37937957319087       2.12017753628547
H         3.60987322398591       0.18134204715225       0.53068089967354
H        -1.92025967111285       0.38923205631683       1.12977850074913
H        -1.02423158955716       1.91569622060298       1.08937066054393
H        -1.46381457546012      -1.91381687930736       1.49923439079602
H        -0.07256103441967      -2.94276014349479       1.14870678635956
H         1.05239178333724      -0.16349171166714      -2.31435809724539
H         2.62648659655306      -0.20972929498978      -1.50895555347657
H         4.54350843722626      -2.00246543148258       1.22633120625988
H         3.68363380861466      -1.89687802217807       2.77266103169147
H        -0.95397963793261       1.92335669708829       3.59117021354112
H        -1.84481283612380       0.39923338163830       3.61803246055228
H        -1.15100587357872      -3.69113103652522      -0.96720099615851
H        -2.55017252356920      -2.66259686378400      -0.61808658824517
H         2.86435196905797       2.25040793430007      -1.82426314552285
H         1.28723184179077       2.30144287946615      -2.62653548288440
H         4.97301154551536       0.12355462983439       3.39205734605967
H         5.83836788318250       0.07344342887851       1.84500907538653
H         6.06015748506280      -1.22671461413284       3.02932109122121
H        -3.77682813617635       1.50261616756927       2.47006512318066
H        -2.88499068361184       3.03377534383435       2.44170012897725
H        -3.36874170659112       2.31810441519693       3.98771969103684
H        -2.97204747298719      -3.93866537475479       1.48611598430907
H        -1.55590439870580      -4.94980573698788       1.16558359404726
H        -2.95866500466841      -5.02206474938465       0.08386792562779
H         2.14645053521450       0.77263484647479      -4.41161433796218
H         3.72395024103600       0.72163040815035      -3.60707701789594
H         3.12666065541913       2.24241843089703      -4.28978746778640
N         1.54259727663481      -1.74084467116989       3.98825305684129
S         1.49957939975787      -0.43628221042205       4.90429391359710
S         0.42273309193420      -2.84221170729504       4.22286461637791
F         2.05098265224693      -0.92581331178948       6.32995928386188
F        -0.96013650077399      -2.06775228517729       3.76908930612815
O         2.50912631839767       0.44724765584404       4.40308161034594
O         0.20382961606517       0.10471575955398       5.17004251218718
O         0.16767549655848      -3.25679730867531       5.55771043216049
O         0.59216923604252      -3.82198011264168       3.19414512720361
