33
C7H16F2N2O4S2 optimized with ForceField in AMS.
N         0.12989293467848       0.28904894469557      -0.06134983284278
C        -0.45703137663195      -1.03625388336383      -0.39002856647659
C        -0.95163438391758       1.03750274202767       0.64796627566755
C        -1.96237003014766      -0.87773460465248      -0.38243591921767
C        -2.19937612814332       0.16285569537669       0.67956815279844
C         1.31881985566292       0.15557841762072       0.83431053623565
C         0.49279118511858       1.01048191473005      -1.30936062538092
C         2.49488616764810      -0.62432906169846       0.22252133936700
H        -0.20092714819068      -1.79725824087206       0.38294674558630
H        -0.11189109115349      -1.43445503822739      -1.37138200549949
H        -1.20650321409439       1.99888111597368       0.14369800724742
H        -0.67909694436401       1.31202384136875       1.69323565487867
H        -2.47991756162477      -1.83312999887572      -0.14611490029027
H        -2.30746074817162      -0.49652454794224      -1.36909159235585
H        -3.12283672524178       0.74768669117164       0.47712945774712
H        -2.28516584662615      -0.33378215133523       1.67209337249166
H         1.69199998106492       1.16381020026573       1.12609021535075
H         1.02557216832143      -0.35698838734986       1.77889886183827
H         1.21140563395870       0.42899746826991      -1.92589747018273
H        -0.40468248215365       1.18572298566763      -1.94431437824934
H         0.95053796658356       1.99786623894526      -1.07740049401492
H         3.24735146451089      -0.82758272979228       1.01316915217053
H         2.16723636554777      -1.59744943473614      -0.19650480442701
H         2.99637369308049      -0.02787959079077      -0.56699299938940
N        -0.17301024636624      -2.67586978628029       3.56221320951807
S         1.24050073859248      -3.38209802304650       3.13713742238893
S        -1.48983776552568      -3.57080469946172       3.93788754983429
F         1.13902166650355      -3.90607351475891       1.55075803165397
F        -1.19612901865335      -4.42482825179043       5.34803244743103
O         2.35753691794772      -2.38568212629822       3.26321742114855
O         1.51539527306747      -4.56420572806401       4.02424022929956
O        -1.77624360267144      -4.54550993015758       2.83020761093376
O        -2.67369590640929      -2.66702599041916       4.13461413643945
