32
C10H16BF4N optimized with DFTB in AMS.
N         2.16341000062192       0.09773684624589      -0.27706146391250
C        -0.28388958523705       0.09705421248521       0.12025726335185
C        -1.60548893396181       0.42122539005430      -0.58247844314214
C         0.84244491719482       0.01246948726965      -0.91144518185921
C        -2.76083391687698       0.49043237661972       0.42007328274222
C        -4.07488537011142       0.84011092157365      -0.27592463097674
C         3.04603908706835      -0.90831845565163      -0.38822716956504
C         2.50596242416027       1.26310510403532       0.29429002860319
C         4.32467664446667      -0.77310735803689       0.10261975463932
C         3.78284558911262       1.44764776475080       0.79790109050101
C         4.71009598822052       0.42829128269497       0.69601169726858
H        -0.35614653470668      -0.84822177365539       0.66816164784229
H        -0.06100000851928       0.89042419979050       0.83836314116457
H        -1.81734936837792      -0.34199436708413      -1.33908531425893
H        -1.50082327112331       1.38507101507412      -1.09043109338902
H         0.78866675720344      -0.92064718990047      -1.47648329827717
H         0.78550053919033       0.86175296347109      -1.59968327623090
H        -2.53767997413266       1.24849500919992       1.17804568104335
H        -2.86215251627925      -0.47402241738922       0.93037907761954
H        -3.99730744990143       1.80869058429149      -0.77084228034677
H        -4.88337550258736       0.88591369976547       0.45392844761058
H        -4.32402353231489       0.08655965315387      -1.02446916933051
H         2.70584868225860      -1.81161462918332      -0.88055865464807
H         1.74153849137207       2.02302126653101       0.38196460301648
H         5.02080195457293      -1.59632840698955       0.00542593848170
H         4.03281650030751       2.40865628823868       1.22867996971267
H         5.72005691098277       0.55394195419231       1.06701921989774
B         1.67795717735746       3.45292487008010      -1.38102024269383
F         1.56578629356283       4.32959730805725      -2.41383453522590
F         2.50428459258020       2.32866674851775      -1.74997375945841
F         0.42232742781951       2.88875864287543      -1.02285355140844
F         2.25065113877723       4.01085563582211      -0.23460702687153
