38
C10H19F6N2P optimized with ADF in AMS.
N         1.39797899438900      -1.79726850107483      -1.24047429931475
N        -0.74207440282804      -1.91716682828894      -0.92204389238706
C         2.83342733854749      -1.69991314721884      -0.94131507077482
C         3.28875441579134      -0.25190924673433      -0.78722419156037
C        -2.03142832780563      -1.98947211699783      -0.21994009758271
C         0.44155629899445      -1.83222950645764      -0.30471727976460
C         2.63470249577650       0.47952527627593       0.38334018738144
C         0.80872314724577      -1.84684057246444      -2.48935496683270
C        -0.54015614530657      -1.92182782660276      -2.28795544249978
C        -2.67012760456901      -0.61227381612338      -0.06117627422263
C         3.24365731534940       1.86091682136993       0.60823233212351
C        -1.83678382849736       0.33993202959258       0.79041700165530
H         2.99101393382909      -2.26956274638365      -0.01267285262897
H         3.36457599322669      -2.20907639632486      -1.75816145657004
H         3.10941013545689       0.29781767665915      -1.72994555487715
H         4.38329943161334      -0.27760382230554      -0.63926071120744
H        -1.82038119912797      -2.45292693280210       0.75573302478769
H        -2.67216886122397      -2.67205306029316      -0.79727271979281
H         0.58650705963286      -1.81830580428953       0.77199637533188
H         1.55269741479970       0.59064840061820       0.19692859690493
H         2.73173065680746      -0.13197101651637       1.29818008893336
H         1.39260222129618      -1.85000582619182      -3.40101801883814
H        -1.36025771857238      -2.00484298529395      -2.99058413061451
H        -2.86189670127622      -0.17670252183937      -1.05829447684913
H        -3.65586001861230      -0.77496974998777       0.40735105721459
H         3.13109064797978       2.49668357741423      -0.28470457206074
H         4.31916975414468       1.78369612511231       0.83260294554857
H         2.75962014021201       2.37355597946267       1.45351442831319
H        -0.88565579559303       0.59173554928088       0.29707951072234
H        -1.60211556059162      -0.10907427963295       1.76735425842725
H        -2.37788902968042       1.28224426205969       0.95998365172900
P         0.71751606408564      -3.53389096884785       2.84257872551027
F        -0.61961600861349      -4.11373394312759       3.58305365145175
F         0.12842537651423      -4.06735715949191       1.36600173273742
F        -0.09375461751048      -2.06441929495469       2.55794138660563
F         2.03593942487712      -2.87603908956893       2.01726084830026
F         1.29697687595823      -2.92353137656717       4.24085057497263
F         1.52598996388063      -4.93552298566334       3.04123743342737
