54
C16H29F3N2O3S optimized with DFTB in AMS.
N         3.04717157441963       0.20448389814908      -1.80351153557642
N         2.64582041200585      -1.90892723930969      -1.80499995452752
C         1.90056617640068       2.30852622627055      -1.20602053327084
C         3.23460753187112       1.56492783811289      -1.30821176994067
C         1.17759948672548      -3.26756690148320      -0.35279363109596
C         2.36804850397485      -3.25690812846117      -1.30988172786657
C         0.95886236338046       1.67661147282072      -0.17641269922491
C        -0.08791286882112      -2.67264774442411      -0.97668623880260
C        -0.27430309854805       2.55021527139102       0.06953635939478
C        -1.21495086800523      -2.57160447228582       0.05559818418223
C         2.64510945143776      -0.81473344128989      -1.05022836240792
C         3.30372204891910      -0.24462894624198      -3.06949675473144
C         3.05249559883385      -1.58153225786791      -3.06995786078532
C        -1.21445204813238       1.88944862687959       1.08260007602540
C        -2.46700246771300      -1.93187364396673      -0.55232377401115
C        -2.46689332825719       2.73135564011350       1.31747102608153
C        -3.57964568140930      -1.79013189880327       0.48477636027631
H         2.12871126616142       3.33678372693190      -0.91043222650183
H         1.41880061311329       2.33833845948043      -2.18869025517848
H         1.44663968930648      -2.71975983731045       0.55403768578520
H         0.99644686140373      -4.30767654854210      -0.06790131170431
H         3.90776452710961       2.07908757228398      -1.99767124646522
H         3.70802985871104       1.48796484604626      -0.32462407035779
H         3.26393400649452      -3.59470794084673      -0.77826301751785
H         2.19181085764687      -3.89777274314784      -2.17760048118264
H         1.49860682612191       1.52506150236008       0.76392755661394
H         0.63084860457413       0.69596557584499      -0.53810464780208
H        -0.40995401648473      -3.29327227057725      -1.82022000539111
H         0.13012530812800      -1.67173777858875      -1.36591582745040
H         0.03953318800820       3.52977884635061       0.44513477015063
H        -0.80500018506468       2.70839860500429      -0.87606812096275
H        -0.87300871611238      -1.96854818633329       0.90339857061725
H        -1.45760899102129      -3.57068005377986       0.43208404535592
H         2.40768782765914      -0.76057969835782      -0.00323362350497
H         3.64723087839937       0.40884536794443      -3.85209054526950
H         3.13409272855048      -2.31428288881886      -3.85344475847230
H        -1.50630518471016       0.90008891174163       0.71363769168946
H        -0.68532623456733       1.74852683561443       2.03050923045578
H        -2.82155910534293      -2.54530402173178      -1.38767024408418
H        -2.21237083086275      -0.94267714944326      -0.94897938062839
H        -2.19901993721918       3.71592732722253       1.70299339120630
H        -3.02067932095033       2.86198880980791       0.38651005278941
H        -3.11646115200969       2.23957782146444       2.04179009061726
H        -4.45741473619412      -1.32952821910972       0.03112254068170
H        -3.24934778459555      -1.16489820452367       1.31532552938584
H        -3.86298255786363      -2.76739769511922       0.87759776327126
S         4.34348003149836      -1.02271973030057       1.73803744500127
O         3.80526401426097      -2.19545563344316       1.05240465374664
O         4.74126782769511      -1.22512201070008       3.10183192471085
O         3.57389466100796       0.19276981044060       1.47547910792018
C         5.90872241684109      -0.69679485118030       0.79299747075741
F         5.58221287018515      -0.39869568067796      -0.48007108773545
F         6.71024681692932      -1.75229543408930       0.76184787021076
F         6.58448509051014       0.33476405897985       1.28057417402332
