18
C4H12ClN optimized with DFTB in AMS.
N        -0.06416462435561       0.06144669592998      -0.06420515678214
C        -0.79097943668663      -1.14438576543184       0.40638315853679
C         0.60071070803717       0.72920329334332       1.09009464087755
C        -1.02058521065568       1.01240208161672      -0.69465442933187
C         0.96705572511573      -0.32969924230448      -1.06459299961086
H        -0.08166067059797      -1.82795629799783       0.86960731689199
H        -1.54454914781809      -0.84379220131880       1.13216240497597
H        -1.26795839119539      -1.62599927897962      -0.44533151549816
H         1.12037253844104       1.61231657417195       0.70599201956796
H        -0.15847307118492       1.01491678412683       1.81538706221142
H         1.30853622110908       0.03503133926649       1.53887634661513
H        -0.44576431447595       1.88244254147136      -1.02751775934970
H        -1.49758344852903       0.52393908079694      -1.54210179047219
H        -1.76693004563563       1.30426815973955       0.04163579458871
H         1.47979230650951       0.58260880192980      -1.38417749799529
H         1.66909284698030      -1.01755750655455      -0.59673199573144
H         0.47650451133869      -0.80952010541124      -1.90897868757418
Cl        1.59195237400340       2.80697723020540      -1.12899122301968
