37
C13H18F3NO2 optimized with ADF in AMS.
N         2.92109358424924       0.09216357911717       0.89177230365012
C        -0.58308950398900      -0.10326953366795      -0.65573234370255
C         0.49340629399114       0.02057470140393       0.42016283597386
C        -1.99348007612910      -0.03798339628049      -0.07301553515303
C         1.89940064573972      -0.04206383747708      -0.16150556988653
C        -3.09205889669666      -0.15797037215402      -1.12748289131789
C        -4.49325557141033      -0.08829547295591      -0.52510827212890
C         3.65590540110770      -0.98812569463418       1.24481764955415
C         3.23682202340208       1.33120343241961       1.34290188720821
C         4.60917536032859      -0.86378130458172       2.26477833827748
C         4.20829922390921       1.50793634328205       2.29403279940399
C         4.89199195138898       0.38026420100610       2.78279422655900
H        -0.45370917096817      -1.05679204900800      -1.20078831453589
H        -0.45328718079453       0.70249461666123      -1.40140901647191
H         0.36303569773344       0.97463601609727       0.96341981947608
H         0.37352622282587      -0.78596260763585       1.16612207861754
H        -2.11678437412083      -0.84376389373389       0.67502611818624
H        -2.11755900598561       0.91549353179310       0.47509407322530
H         2.10350000578376       0.75204224655700      -0.89618216298132
H         2.09364713925615      -0.99690483956726      -0.67079790435517
H        -2.96626534014041       0.64655984528588      -1.87461898184169
H        -2.96764847524190      -1.11112462105834      -1.67358220550577
H        -4.64846811329828       0.86768355305332       0.00081640427179
H        -5.27160265163590      -0.17724529930308      -1.29847968736526
H        -4.64877330462749      -0.89962620093577       0.20413558350860
H         3.31284717496245      -1.94955262446687       0.88024239095225
H         2.67941319249476       2.15329156219371       0.90008141959352
H         5.13840130301488      -1.75671820849361       2.59393463660932
H         4.43984259480988       2.51236768642571       2.64468554477083
H         5.64954938754229       0.49385591031786       3.55950341790306
C         5.17060904384529      -0.27515871828350      -1.28177606305950
O         4.59871091234792       0.82770467561262      -1.27725281084312
O         4.99707883209512      -1.31459893379785      -0.56508362976553
C         6.31082259339651      -0.48577529678898      -2.33332200416055
F         6.52127883450633       0.61167273270378      -3.10685032889339
F         6.01842557006396      -1.52584448240839      -3.17700608896997
F         7.50009554554292      -0.78284212899759      -1.72123162570338
