55
C17H18F18NP optimized with DFTB in AMS.
N         3.92721640093064      -0.66324767423704       1.43164520646035
C         0.72030763202029      -0.73913719472882      -0.61029504915406
C         1.65964415692331      -0.38321891427354       0.54616534542331
C        -0.66295899673552      -0.11353533745416      -0.40921480412636
C         3.03438992436927      -1.01528284680359       0.32219185218052
C        -1.60302242167465      -0.47009566342056      -1.56527325794125
C        -2.98475892248982       0.15093852193289      -1.36960731711121
C         4.06293841051622      -1.50252530152222       2.46817932276811
C         4.61172736771281       0.48929030374155       1.37514573396241
C         4.90558193855684      -1.19065023028166       3.51484735965724
C         5.45569594048874       0.85200700415719       2.40302687897721
C         5.61457953769991       0.00280380172541       3.48961913999010
H         0.62588873835415      -1.82778578417640      -0.67767407910741
H         1.15303514675599      -0.38178278019744      -1.55023799717596
H         1.76850529768073       0.70346674345381       0.61933576622437
H         1.24460989585709      -0.74567190519741       1.49213114544380
H        -1.09015998161942      -0.47033416342597       0.53438182023803
H        -0.56329887179737       0.97520782515735      -0.34009777126097
H         3.48865623003265      -0.65303658914205      -0.60204147230502
H         2.96180217304936      -2.10309470161096       0.27477936306241
H        -1.17240969389634      -0.11283260928743      -2.50657868799703
H        -1.69857543822816      -1.55890392650137      -1.63287515690049
H        -2.91205222676187       1.23826440315511      -1.32011504109246
H        -3.63451027017582      -0.11624060833663      -2.20299397361566
H        -3.43881872082956      -0.20914721889020      -0.44536377674667
H         3.51008632590614      -2.43252454817059       2.42568313266573
H         4.49258827026666       1.09066381942605       0.48279388319335
H         5.02100580881044      -1.89446632615621       4.32868283215615
H         6.01209982089496       1.77680807766905       2.32814011504809
H         6.29838625109830       0.25568677359800       4.29044827729892
P         7.15695838606075      -1.88524190419327      -0.22456938907369
F         5.74599280852817      -0.97332177896973      -0.53222181696857
F         6.77325800296203      -1.83335232384986       1.43487568995806
F         7.47894665485705      -1.87047940744036      -1.86297576030988
C         5.92678143330279      -3.42546061116815      -0.37370764553329
C         8.10475243080698      -0.14502784074081      -0.00671445518406
C         8.78280534614563      -2.99213285215743       0.12019400751137
C         5.13980658229291      -3.68461112379884      -1.68820170078155
C         8.89611250336472       0.16482111743110       1.31780326325790
C         9.21783629340734      -4.12775127004736      -0.87118020253712
F         4.94140310011418      -3.27860096729578       0.55782466152481
F         6.57073172296905      -4.56017081527948      -0.05773489067905
F         7.19926942454452       0.85803266261747      -0.10193924729908
F         8.96226431109828       0.02565861110864      -1.02005621768849
F         8.69192391902031      -3.54791532153655       1.33955207286904
F         9.81409708223967      -2.12263816620201       0.16025195681175
F         4.43649805693503      -4.81514262039701      -1.57263841285433
F         5.90142131884991      -3.78385821767887      -2.76224825762298
F         4.25568214752261      -2.69531724759148      -1.88899687982051
F         8.28588653507757       1.16203390504228       1.98523984194234
F         8.96362203998022      -0.85930046320146       2.16170525342888
F        10.13234814453843       0.56308848031000       1.05312883958516
F         9.31735055227991      -5.29217575724700      -0.23713581432080
F        10.39931771355084      -3.85032018588320      -1.41302334852619
F         8.34580456693512      -4.28283546373311      -1.86732153990530
