25
C7H16ClN optimized with ForceField in AMS.
N         0.17227948088210       0.28002409371812      -0.04783965466169
C        -0.43824917084693      -1.01242760520253      -0.46104386942322
C        -0.92486663828509       1.04882006353350       0.61453104780037
C        -1.94218311871842      -0.83038172249013      -0.45745111090350
C        -2.17100574313669       0.17595409003375       0.63839185903898
C         1.29113531041440       0.07350450869176       0.92179305904773
C         0.64590463210568       1.02823868476879      -1.24112697682856
C         2.47413309623042      -0.74411372793753       0.37446466324866
H        -0.20461156751056      -1.82624831216019       0.26413961312595
H        -0.09105246675637      -1.35896903556310      -1.46167535268329
H        -1.17251806142359       1.99140051493311       0.07181230407247
H        -0.67655957012839       1.36108905297961       1.65546812419749
H        -2.47584403211456      -1.78490680443166      -0.25646445819160
H        -2.27611386029606      -0.41142117912523      -1.43262740966067
H        -3.09714618462855       0.76566490725744       0.46557082169726
H        -2.24274299206134      -0.34909262739566       1.61735561336485
H         1.68664822185523       1.05745429638297       1.26314631070823
H         0.91186387550500      -0.44750250713124       1.83122461495030
H         1.38606579092689       0.44249099703167      -1.82667288012147
H        -0.19845833170536       1.25378787416200      -1.93007973028162
H         1.11732675067790       1.99153970501949      -0.94315703779670
H         3.17895245593161      -0.96012123608769       1.20483849247993
H         2.14194708859192      -1.71290714598910      -0.05082917676339
H         3.03369028985088      -0.17249566139087      -0.39383887927106
Cl       -1.20216947956014       1.80092762849271      -4.79380846074547
