41
C11H22F3NO3S optimized with DFTB in AMS.
N        -1.23711145161677       0.17506733175863      -0.20624939500578
C        -1.30095496557228      -1.29503843467331      -0.56139407531149
C        -2.44959480118415       0.45381482577437       0.63564448251148
C        -0.00248624553036       0.50614113958628       0.58883874789896
C        -2.61322063505002      -1.82949024588290       0.00106856925058
C        -3.47343717956264      -0.58443120838848       0.20415336625055
C        -1.29577331976547       0.99938970357437      -1.44440458947113
C         1.28477650002399       0.47786475915462      -0.23801455437242
C         2.47431977153232       0.01218493697755       0.60697103942079
C         3.72526017820153      -0.11927297843662      -0.26800681000491
C         4.92768020010638      -0.58300377634350       0.55081089100687
H        -0.42959223822227      -1.80315172522285      -0.14887080750183
H        -1.26317672891577      -1.38597197002141      -1.64677051710322
H        -2.76564830135010       1.48648396655912       0.48685261284442
H        -2.17734142298311       0.30637110027765       1.68354491293712
H         0.04082224724290      -0.22408539894049       1.40126698300757
H        -0.16380978486485       1.49724836938350       1.02268224526161
H        -2.44559399931557      -2.33037178967551       0.95799579545371
H        -3.07122579832416      -2.53908925341454      -0.68823203514348
H        -3.95753378789930      -0.28784364562787      -0.72950544879719
H        -4.23781237492531      -0.72448889744629       0.96880467886179
H        -0.50487192847795       0.68053169803386      -2.12097133714823
H        -2.26140262676661       0.84370920013515      -1.92076125585781
H        -1.17197509054680       2.04832356921744      -1.17999127552754
H         1.17539272504900      -0.21291448190177      -1.07135870610920
H         1.48041791703382       1.47286312712999      -0.64759414503459
H         2.23925052988295      -0.96425192879083       1.04404954889886
H         2.65608996144772       0.71569380352081       1.42749670715774
H         3.94865264628089       0.84663567241032      -0.73352557811402
H         3.52662118015126      -0.84178120040689      -1.06505112983943
H         5.15506435395418       0.13251142880196       1.34320049962352
H         5.80107994480279      -0.67640402720001      -0.09448790726539
H         4.72729712242341      -1.55382115999125       1.00590279539563
S         1.24497379413263      -2.18475606092555      -2.74844396739066
O         1.32115745889197      -2.48440634641547      -1.32298203802076
O         2.49142264315302      -2.24397854246577      -3.46148989770643
O         0.41536762506528      -1.01267619899072      -3.04122318350119
C         0.19884136692509      -3.56764187563436      -3.40307738048787
F        -1.00256035106246      -3.50597691546368      -2.80278772514547
F         0.71984620075445      -4.75792502147638      -3.14314212769611
F         0.00170334008037      -3.46770458935914      -4.71001412672504
