35
C9H20BF4N optimized with ADF in AMS.
N         0.34550177782853       0.41125411861086      -0.03780626782780
C        -0.40160424075351       1.42174306338423      -0.90355642727918
C        -0.41339131625718      -0.89567889920877      -0.00650972116396
C         1.70869674781056       0.20281747304991      -0.68934620163715
C        -1.85225557906163       1.59473227040469      -0.49105769661639
C        -1.86383728117197      -0.73745417687484       0.42564002074900
C        -2.60083012359363       0.26287708293753      -0.46557324985164
C         0.53037451075811       0.97466417236652       1.34039281092059
C         2.66637713125189      -0.72300512578935       0.04037590521563
C         4.02972983354725      -0.64784633262293      -0.65383985632685
H        -0.32849425933816       1.03463610872345      -1.93242678085864
H         0.17533660016354       2.35628804303553      -0.84851882480027
H         0.13886198101553      -1.57587486715107       0.65651048420387
H        -0.36239112727865      -1.29169318899480      -1.03435647466711
H         2.15365036262130       1.20213305818670      -0.78616061888024
H         1.49521669353033      -0.16982376324476      -1.70431493300625
H        -2.30624969136451       2.29075167165376      -1.21526764862006
H        -1.91893091562987       2.09653912453265       0.48967026687425
H        -1.91683199221069      -0.42521247640456       1.48305083515030
H        -2.33368303109540      -1.73414526092456       0.37295874979932
H        -3.63540638836228       0.40203299271668      -0.11356487320151
H        -2.66088544623111      -0.14270308287509      -1.49307480893586
H         0.99118901078634       0.20976431045258       1.97527522267725
H         1.16522564137150       1.86896607979061       1.24730563552112
H        -0.44551997909995       1.25180699888114       1.74996072024477
H         2.79353965149184      -0.39883448698055       1.08568523965162
H         2.29998025025968      -1.76427128965330       0.04875012603627
H         3.95679868838162      -0.95871543459540      -1.70744489751402
H         4.40472722192829       0.38627389310267      -0.63048551215525
H         4.75532813819302      -1.30400239531996      -0.15343283564507
B         2.59061970245784       3.62204811527519      -0.91321558079612
F         1.59084084042918       3.63501280509464       0.14202185058818
F         3.62545101883849       2.72337371469172      -0.50188127700117
F         3.07725029646817       4.90429540855348      -1.14390496116579
F         1.95909048251552       3.07884739679537      -2.07872750718180
