45
C13H25BF4N2 optimized with DFTB in AMS.
N         1.11200179888983       2.31413645631689      -0.12994089900394
N        -1.01208388438956       2.56748271663382       0.08850794356098
C         2.42493510226159       2.09052053066924      -0.73267760258548
C        -2.43622455263717       2.64397858277676      -0.23199500125157
C         3.01405044989840       0.75507057762675      -0.27205020484264
C        -2.93254219882163       1.31968327150172      -0.81937669867657
C         2.12430074473667      -0.42645700128920      -0.66712991412563
C        -2.62629711955384       0.12554796786144       0.08775743534548
C        -0.02850232225429       2.44410167478932      -0.80171200024252
C         0.85235571167486       2.34056578384618       1.21478730494578
C        -0.49015180320649       2.49523453097141       1.35184281887559
C         2.73003522835767      -1.75892716187156      -0.22028346405214
C        -3.00639166035385      -1.18821615048770      -0.60158667717933
C         1.82252289174882      -2.92405772201968      -0.61154870641645
C        -2.68506080510873      -2.38977285128949       0.28444544463775
H         3.07719383783468       2.91985632136431      -0.44199864241313
H         2.28636328035355       2.09414478013374      -1.81624216474452
H        -2.57779442129383       3.45336899885940      -0.95369984499010
H        -2.96445474306724       2.89277059025239       0.69248961020789
H         3.16262289484320       0.77235097169221       0.81306724779705
H         3.99693825373074       0.65470940516540      -0.74230262177785
H        -4.01163363685640       1.41208902336344      -0.97280166457676
H        -2.46089057459959       1.16775862981994      -1.79212429357712
H         1.98906075574538      -0.42760311902364      -1.75163340667631
H         1.13627266366775      -0.30547978854768      -0.21326230323458
H        -3.16575994982929       0.22803100980087       1.03703812288668
H        -1.55418518136428       0.10754681038460       0.30717631785060
H        -0.14225407088315       2.45696502915828      -1.87469529785426
H         1.62896249487481       2.25267304571974       1.95381359611231
H        -1.10659894929849       2.56322699114070       2.23092518600184
H         2.87139568773496      -1.75381488256603       0.86693717242836
H         3.71376297165790      -1.88953656107835      -0.68442084489980
H        -4.07492069958432      -1.18349030870325      -0.84195677204920
H        -2.44624900296702      -1.26766734967773      -1.53763280575119
H         1.67419273065342      -2.94378613062027      -1.69144037014474
H         0.84811124913338      -2.82471172397697      -0.13094457285700
H         2.26897963883666      -3.86947653397452      -0.30195691263490
H        -3.23174559305548      -2.33265559138788       1.22760036436628
H        -1.61685466911830      -2.42477865137200       0.50461571390079
H        -2.96401443296468      -3.31308345498544      -0.22358213663862
B        -0.21527532423291       0.65559885542981      -3.25655644842027
F        -0.43920379897277       0.11125328346823      -1.95787901532061
F         1.08519604979653       1.21391750236087      -3.24410349827367
F        -1.13297859887532       1.72278207751995      -3.40551088771231
F        -0.35911870284216      -0.29468866995602      -4.22060012269420
