56
C16H19F18N2P optimized with ForceField in AMS.
N         1.83648452026495      -0.90052569140927      -0.14389533051089
N         3.15223386147691       0.88664555160280      -0.01334913841938
C        -0.45245269341129      -1.83468211152815      -0.05377367773650
C        -1.11844311317252      -0.47941721161142      -0.33094551445070
C         0.94354104056686      -1.92550868107619      -0.68300060808249
C        -2.55298585770267      -0.44836133297691       0.20794298960389
C        -3.18378255624387       0.93444166613245       0.01005726847643
C         2.38123303240923       0.13096255891370      -0.81871095156678
C         2.28307259441891      -0.79616802696165       1.12468158085000
C        -4.60203744471939       0.97830011081389       0.57066319707639
C         3.09792556538705       0.31505665376552       1.20557425027746
C         3.89323747151902       2.08730106283639      -0.37776468389229
H        -0.37596532434313      -1.99857942651461       1.04316401918138
H        -1.08050272707593      -2.64829015209656      -0.47793397841588
H        -1.13517507489551      -0.29090159206292      -1.42707887210933
H        -0.52767346045410       0.32653500792791       0.15719334964609
H         0.85743173947377      -1.81623803336880      -1.78674293781495
H         1.37492231500897      -2.92900145414407      -0.47830847767294
H        -3.16208455767147      -1.21216916247757      -0.32396563203453
H        -2.54735907389037      -0.69631043899059       1.29110811709880
H        -2.57071704529963       1.70433016112269       0.52782665272900
H        -3.21577619150178       1.17995529426531      -1.07389238189976
H         2.21354297969010       0.33106771126007      -1.87001484828143
H         2.03373849731668      -1.47431748141216       1.93046066641279
H         3.61043328837324       0.67856577496188       2.08684917512882
H        -4.59227889158565       0.76412389160496       1.66078822818199
H        -5.03327178661911       1.98906738800641       0.41167503014307
H        -5.24396339307573       0.23239097118013       0.05544181477477
H         4.97593186692054       1.92938377132250      -0.18973671257115
H         3.74634074095869       2.32459547615782      -1.45322082529605
H         3.53662230512645       2.94486481291960       0.23053078343922
P        -0.27128700574949      -0.00417874890283       7.50752129480856
F        -1.09377119238706      -1.44646036512595       7.97396113134104
F        -1.43988337513664       1.16744133053435       7.02642357938295
F         0.87046534800590      -1.09216269229965       8.19514412852283
C        -1.03187927449624       0.61468128476761       9.17386994541059
C        -0.78746358259616      -0.83819158801136       5.83893463614907
C         1.34970317673614       0.90744311068440       7.02413478475850
C        -0.44348980350334      -0.01061346260481      10.45765909437670
C        -0.53233225489040      -0.04351096582776       4.53313952662996
C         2.23305402076755       1.45495970284506       8.16080157524056
F        -2.39337136457775       0.33390482207704       9.18121969467525
F        -0.90884565670379       1.99113066330028       9.27833879612264
F        -2.15218114333143      -1.11027559547674       5.86114663167634
F        -0.11456015550660      -2.04497882655860       5.72037177712310
F         1.01639676046147       1.97825753842789       6.21395311894238
F         2.14824080121815       0.04463012809858       6.29170223546375
F        -1.13926443255903       0.47355272711675      11.55131899168771
F         0.88260442275214       0.32494180732914      10.61910578226008
F        -0.56351014265709      -1.38819098424654      10.45271447141132
F        -1.15281378850905      -0.70525733217281       3.48935289460336
F        -1.05522889087915       1.23437026595207       4.58941489879474
F         0.81072635413846       0.02601034569063       4.22674266504382
F         1.53494764642833       2.31334847334650       8.98192794421452
F         3.27765427892296       2.17037650286656       7.60214898887009
F         2.78413503350289       0.42860252562707       8.90549667912509
