64
C18H26F18NP optimized with DFTB in AMS.
N        -0.20438501979712      -1.47035243146371       1.19661364602361
C        -0.20741285418965      -2.75963399532575       0.42761037966643
C        -0.72802818113055      -1.86761637291626       2.54636503370241
C         1.18601754845595      -0.92021637391646       1.34092714913990
C        -1.44778095635863      -3.51320115278277       0.89429715099840
C        -1.75262434312009      -2.97061552784544       2.29826345076844
C        -1.13723631751174      -0.50499318627211       0.52546194934559
C         1.88283265119792      -0.62768666957946       0.01665296984027
C        -1.15521221025170       0.89139407173511       1.13071622272384
C         3.28382265355963      -0.07193882349524       0.30394727699097
C         4.05005349413297       0.17969704118093      -0.99709158438685
C         5.43538651324644       0.77111763393471      -0.71709636898170
C         6.19630356276056       1.03910698983360      -2.01389978596197
H         0.69745122712940      -3.30375830826603       0.69290674554721
H        -0.20584197692702      -2.55025341963709      -0.64189719544129
H        -1.14013736183914      -0.99684698024284       3.05446775319984
H         0.11326530495408      -2.25242888363896       3.12134368131364
H         1.75871206995779      -1.66483615708794       1.89267223974752
H         1.11685511131721      -0.02053085117819       1.95572298864301
H        -1.24271828700760      -4.58452347359202       0.91573259691498
H        -2.28966181492309      -3.34040991469388       0.21993199252613
H        -2.77261029196963      -2.58420515556056       2.35339002822567
H        -1.63764236191824      -3.74593788781676       3.05718646239184
H        -0.84148131227472      -0.44446847997715      -0.52452524172393
H        -2.13543864626665      -0.94585097821606       0.57676277424477
H         1.97475428257429      -1.54867375845050      -0.56470361282650
H         1.31437305954784       0.09632840875363      -0.57509312143965
H        -1.96466945667932       1.44701933259517       0.65758508167436
H        -1.33818806125448       0.86964555506827       2.20346341353167
H        -0.22363493429420       1.42132064830051       0.94115789242135
H         3.83339374960764      -0.78719403617518       0.92224460592195
H         3.19394357672624       0.86252472160885       0.86821431005825
H         3.47907786023528       0.86832262575217      -1.63068709778700
H         4.15825221696580      -0.76431985990806      -1.54141787274982
H         5.32461068650829       1.70734305232019      -0.15887775122939
H         6.00683650948754       0.07589739760214      -0.09465832177845
H         5.65093584035274       1.74757472485060      -2.63955460024313
H         7.17823565221990       1.45691804548682      -1.79094661548842
H         6.33210885697083       0.11364244716598      -2.57516229681523
P         3.25152697928267      -3.98893454070886       3.09354844024842
F         1.64805636158741      -3.74756043919707       2.50981611909709
F         3.67016022668396      -2.38516764635649       2.71469582786686
F         2.80650296321149      -5.55621785406019       3.46055969318684
C         2.45859634081204      -3.26319859515553       4.74532009119461
C         3.65858501198370      -4.42940255592197       1.18733008663284
C         5.08673815419011      -4.42287953508727       3.71611491385806
C         1.36297940580182      -4.06762847425944       5.49511385325412
C         5.00068193522392      -4.07417507685553       0.47467135266134
C         5.49649262524002      -4.69082067669233       5.19248246025874
F         1.84214445297485      -2.09471114225008       4.41850759162635
F         3.40996376965331      -2.94558331114206       5.63497431084858
F         2.76829502673771      -3.71300587131611       0.43773082683500
F         3.40883205219798      -5.72033941529811       0.93970114364761
F         5.94881889437296      -3.51009037584824       3.23327476300573
F         5.33057795835392      -5.58291170218287       3.06649644718914
F         0.97242560814742      -3.39767575992904       6.58250838164174
F         1.76290706282857      -5.26925091128908       5.87575626827252
F         0.28221355633677      -4.20927554422932       4.71383713895107
F         4.83356794693783      -4.26469270590081      -0.84075167085905
F         5.29171099541788      -2.78356437236159       0.64861758775625
F         6.04155745620222      -4.79733612811867       0.84787317358146
F         5.84304464291472      -3.56812820463568       5.81165206939246
F         6.54060367696988      -5.51629571449306       5.23644262184194
F         4.49920777504211      -5.26228176656088       5.86699783560161
