46
C14H26F3NO2 optimized with ADF in AMS.
N         0.12210449132552      -0.63217582113214       0.32187048064255
C        -0.08561218650529       0.07844164152755      -1.01242100473814
C        -1.13663656388407      -1.38404534725444       0.70147602662675
C         0.37371094509606       0.40106182308348       1.41199489260011
C        -0.57073995203891      -0.86317538251860      -2.09924722640630
C        -1.61722503071373      -2.34147840453830      -0.37645410744625
C        -1.83916837185564      -1.60995084090052      -1.69953525055251
C         1.29233429070136      -1.57197256740738       0.25678486636143
C         1.61542629238205       1.26913592421781       1.21543180128032
C         2.47112376963361       1.32665315436299       2.48513663444643
C         3.80192971812582       2.05091686712035       2.27409854338126
C         4.77098478571977       1.29049433729606       1.36635129410378
C         6.12105949941209       1.99056320454970       1.23938412772178
H         0.89201089394206       0.50512511485415      -1.29645283174333
H        -0.82714506799811       0.86785960259584      -0.80482552044235
H        -1.90092369893928      -0.61260551016911       0.88910654350921
H        -0.92168930479196      -1.90086291095606       1.64959405891275
H        -0.54970694373978       0.99776289264639       1.46545788575695
H         0.44719919063296      -0.18559282316156       2.34284442168813
H        -0.73290306742630      -0.24900332401461      -3.00000604125161
H         0.23308984563026      -1.56617668348477      -2.36743017974376
H        -0.89759752962894      -3.16624405221579      -0.51016381325757
H        -2.55139589495582      -2.80064303245321      -0.01194009723017
H        -2.67526070885238      -0.89491985778765      -1.58444622402918
H        -2.13065294195921      -2.32476082110103      -2.48527447545204
H         2.16541906740024      -1.00905506366627      -0.09996702185490
H         1.44766893340344      -1.98851230595164       1.26045029522511
H         1.08046094144282      -2.36945295319130      -0.46019275576563
H         2.22928091574501       0.90082448947557       0.37797622973679
H         1.31071184796108       2.28921656858422       0.92569289519796
H         1.89979261679272       1.80919430351590       3.30020371613403
H         2.68336573300335       0.29150625755024       2.81685253481698
H         4.27610979638167       2.21277269242421       3.25984796939585
H         3.61074880691310       3.05731005778838       1.85510481622090
H         4.34535128293603       1.14529705748906       0.35927949270635
H         4.92399686397421       0.27575801679284       1.78016555091852
H         5.99982523770260       3.00250071083395       0.81917757743504
H         6.61517005828499       2.09155959378652       2.22035456421393
H         6.78851891833445       1.42791515114797       0.57003498885857
C         3.69261425532480      -0.40245073476316      -2.12148582989030
O         4.88090819901493      -0.62608666099461      -1.86551842853085
O         2.83606403724940       0.34023807792906      -1.54659104020310
C         3.08609204042409      -1.22897177222138      -3.31358703629047
F         2.45655087184125      -2.36963832451421      -2.80989472059941
F         4.00124872530558      -1.66417974211967      -4.21266801392073
F         2.11917621255206      -0.55752784245481      -4.02096733014291
