32
C10H18N2O2 optimized with ADF in AMS.
H         0.44019074477094       0.07252785447291      -4.76833581678479
H        -0.93600497556742      -1.02791186022098      -4.45022101138837
H         0.68062759760172      -1.72240657827019      -4.75555743069136
C         0.14178985304224      -0.87952397190096      -4.30666016930754
H         2.40251709734779      -0.69132706312565      -0.26599841054761
H         2.41199602462551      -1.72141654999654      -2.84140632874432
H        -1.27694189721930       0.24813656014649      -2.13861911377467
N         0.43990114847716      -0.82591309288819      -2.88615882317402
C        -0.23797546257614      -0.02758941715901      -2.02672790090069
N         0.42905125520764      -0.03047615422050      -0.85576716603160
C         1.64644298425058      -0.66938581164898      -1.03911088243576
C         1.65610427615661      -1.16582249636866      -2.30156125488040
C         0.10832072711358       0.85753814041693       0.25648544645619
H         0.94561795984998       1.57247006041576       0.32667348776480
H        -0.76895448564981       1.44440261651140      -0.05402773046046
C        -0.16060631342997       0.09252358817678       1.54437066144797
H         0.71913559224853      -0.52558841473935       1.79983900748069
H        -1.00002634070137      -0.60755412478885       1.37994238352076
C        -0.48274471561548       1.01660021864115       2.71685711968394
H         0.36066606313287       1.71216534903387       2.87615590597012
H        -1.35693955397663       1.64267587260415       2.46139952027570
C        -0.76315058053787       0.23388260063772       3.99739091862371
H         0.10827232504948      -0.37781457394740       4.28094739814779
H        -1.61776820543807      -0.44805269994203       3.85978172635321
H        -0.99593291821591       0.90024527301892       4.84161839546664
C         1.31129852638229       3.78641813979429      -3.59989553436122
C         1.02769742423104       2.59893568022875      -2.67114181793436
O         1.81891761666800       2.35653247756235      -1.73449388570146
O        -0.04272981127407       1.94424194149231      -2.98486541341669
H         2.16024535118088       4.37719922887582      -3.23148518996858
H         1.54229951885385       3.41249673500069      -4.60976178750710
H         0.41779741291133       4.42181835758703      -3.68853622028050
