43
C11H24F6NP optimized with ForceField in AMS.
N        -0.22186032669980       0.30436263542714      -0.16457691315088
C        -0.91496235077886       1.28142896474204       0.73827572826902
C        -1.11903631138322       0.01021000150351      -1.32937000032435
C         0.12101094519335      -0.94042341329332       0.60935181656874
C         1.00801288485692       0.96174114563824      -0.72758951772082
C        -2.32446592280777       0.83957074903045       1.18233217601989
C        -2.51173492098473      -0.50471871876632      -0.93197523456642
C        -3.20792413083317       0.49318880194419      -0.01247070742854
C         0.91285999654723      -2.01723929777044      -0.17172818028870
C         2.12713806117881       1.28514551256588       0.29229284206804
C         1.22307054320085      -3.21670232732412       0.71999173774964
C         3.28581867330143       2.01201373755861      -0.38639035913977
H        -0.32754216053045       1.45428120760845       1.66567866819731
H        -1.01943120176569       2.27085343047446       0.23580641505541
H        -1.27790412633774       0.93534894798263      -1.93239532948396
H        -0.65558203826920      -0.71376044915687      -2.03148692450168
H         0.69553243868331      -0.67673971977881       1.52401945863297
H        -0.79293593581410      -1.43103120480827       0.99685808142323
H         1.44940342487960       0.33407643399945      -1.53170021272193
H         0.72887828172188       1.91636211840263      -1.23140961988990
H        -2.26824668514666      -0.02224552349535       1.87931156075535
H        -2.80002956510846       1.67282817370420       1.74479939884693
H        -3.12474758856696      -0.62974458011367      -1.85112891878492
H        -2.44987743937901      -1.50244835068063      -0.45130171270606
H        -4.16374770396921       0.05767508889759       0.34887338994921
H        -3.44402119204348       1.42028000096004      -0.57982492653183
H         0.32611236216350      -2.39025152092497      -1.03544782603599
H         1.87960695804421      -1.61770267501148      -0.53846947695593
H         1.75046594032008       1.94033559739517       1.10337620038150
H         2.53397994148754       0.35568928648320       0.74067148560125
H         1.78515096315754      -3.97721288461298       0.13748074580183
H         0.28211409139664      -3.67772792529591       1.08885650049164
H         1.84380489270856      -2.90240025830702       1.58556987123046
H         4.08808745693568       2.20666381031771       0.35618285851711
H         2.94139425413527       2.98424557891466      -0.79839772994441
H         3.70435247667579       1.39192446787985      -1.20712944972716
P         1.84722680191524      -0.94907087828531      -5.09049938480145
F         3.08198683121000      -1.27136454654821      -3.94037628340810
F         2.45831651929927      -2.13397915785250      -6.17387259780577
F         0.88265550373693      -2.12030775701705      -4.28499819131628
F         0.58039766522752      -0.65362737576387      -6.21205654960227
F         1.19424305978623       0.30863519326122      -4.12157204011217
F         2.86958688115514       0.21256955441576      -5.83607017041024
