32
C10H15F3N2O2 optimized with ADF in AMS.
H        -0.18908128445090      -1.31493554072807      -5.15765562947432
H        -1.35707487223895      -2.15368202156956      -4.05996223059874
H         0.11425095203523      -3.02751094927338      -4.58846298458072
C        -0.30229623268159      -2.04506650761653      -4.33676264918669
H         3.05506110443533      -0.33884262147384      -1.62942154646399
H         2.44260519563056      -2.07093413789940      -3.72017158401747
H        -1.14034067290170      -0.38721848513188      -2.22264306838582
N         0.42766381592598      -1.49301871297834      -3.20321665092495
C        -0.09202100776930      -0.61650924446381      -2.33351984561454
N         0.90795507935992      -0.11617036844015      -1.59064027919280
C         2.10381228543573      -0.63386086202301      -2.05291604971218
C         1.80405134267967      -1.49042051707088      -3.06753803162229
C         0.73721670847600       0.97629795974392      -0.62920472740682
H         1.74542284549376       1.33745832039302      -0.37972905621114
H         0.21013071029625       1.77892682495575      -1.17186312383873
C        -0.00849241673037       0.53608089975837       0.62456232691786
H         0.53564966305639      -0.30050660710529       1.09937889078008
H        -1.00607418812117       0.15289458339240       0.34428048225801
C        -0.17149753409865       1.68729735034894       1.61476590665106
H         0.82523406278649       2.07984586069701       1.88593281855073
H        -0.71068398919429       2.51488378993983       1.12016421546161
C        -0.91771774524692       1.26516097091597       2.87751631744332
H        -0.37984758479146       0.45999221362721       3.40334747876611
H        -1.92595574270886       0.89404774874273       2.63403932893689
H        -1.02906804704006       2.10871807583677       3.57513497914335
C         0.22487345113221       1.56295069053598      -4.47702818452609
O        -0.58527288240410       1.50257062514980      -3.50728772609946
O         0.68257151821775       0.67198213293626      -5.22080434450069
C         0.75548327779469       3.01638694445660      -4.72493326342614
F         1.59020485455287       3.39268012054695      -3.68871857388110
F        -0.25365457702734       3.93784429894930      -4.77011267302687
F         1.47282956619681       3.15454664794733      -5.87205860341745
