55
C17H36ClN optimized with DFTB in AMS.
N        -0.51700100384847       1.67661071577654      -0.19716970536782
C        -1.38723013916288       2.19573424388699      -1.31049757579125
C        -0.26314313248735       2.79817594576251       0.77372414407139
C        -1.14940353401282       0.52492102263796       0.53556856110502
C         0.78402782312083       1.26920177863132      -0.83380100736579
C        -2.68599468354694       2.82472108873223      -0.82670289309903
C        -1.54017929361666       3.45024479727520       1.29214646228273
C        -2.40070682315280       3.96820773216167       0.14311810900777
C        -1.43368828978682      -0.71384169309243      -0.30669367965574
C         1.81416897827421       0.66055072594795       0.11505185457163
C        -2.21060737056101      -1.71068072324872       0.56440739946659
C         3.08849292578124       0.32564147764136      -0.67006188018290
C        -2.60013034621064      -2.95580399114825      -0.23490131428276
C         4.14628208049315      -0.29927244897418       0.24457084749620
C        -3.38629202476871      -3.94100577948429       0.63587533847104
C         5.42080449360591      -0.63947439717391      -0.53442965486642
C        -3.78712846226839      -5.18617000473219      -0.15321744794303
C         6.47735905788163      -1.26392110331127       0.37508213883551
H        -0.78931052201989       2.94051501365497      -1.84629060015808
H        -1.58788998978559       1.36359907302638      -1.98726531771539
H         0.31263641181302       2.38744499260256       1.60503888899508
H         0.35094332156845       3.53690059237358       0.24826729164024
H        -0.48488592229136       0.27336562121913       1.36477660790554
H        -2.09664827751721       0.88058670596417       0.95852445557642
H         0.54162002485968       0.55465417042359      -1.62426098797355
H         1.20168108862964       2.16582718443488      -1.30049424921648
H        -3.21127370749218       3.20028288226527      -1.70890968505486
H        -3.32320262441057       2.08304887349000      -0.33803687912984
H        -2.12315356397840       2.74539211751029       1.89022963849840
H        -1.23737328793221       4.27735078924773       1.93994409644022
H        -3.34328543744567       4.34788712794060       0.54208723626877
H        -1.88707296959073       4.78579907886226      -0.37588388195969
H        -2.04556567258187      -0.45674837281160      -1.17549919839705
H        -0.50832118979392      -1.17603584658566      -0.66659198744233
H         1.42682680274340      -0.25393360086756       0.56940540705662
H         2.05979531397302       1.36193210910056       0.91650805521540
H        -3.11159663011981      -1.21994308492211       0.94562205124110
H        -1.59367502195359      -1.99968914060007       1.42182356294432
H         3.48815997814076       1.23851864508187      -1.12460011903574
H         2.84408910750275      -0.37177827972559      -1.47833860566844
H        -3.21236936635289      -2.65998432833323      -1.09391062969747
H        -1.69779435383317      -3.44474645102614      -0.62107920494653
H         4.38621242791615       0.39960153475310       1.05305559628065
H         3.74082451689083      -1.20941474929998       0.69918135993522
H        -2.77429734014687      -4.23574923920718       1.49509613142052
H        -4.28504647645878      -3.44749537364308       1.01873480137150
H         5.17708911962537      -1.33694598161847      -1.34290374372446
H         5.82321251402761       0.27213057788389      -0.98904831727440
H        -4.34569513626247      -5.87023978281697       0.48611381527629
H        -2.90273573978475      -5.70457019302281      -0.52756288073532
H        -4.41509705356705      -4.91456325010047      -1.00303419887143
H         6.74781774644581      -0.57477312632078       1.17618035185885
H         6.10092070545927      -2.18504563814964       0.82180724098260
H         7.37340603200887      -1.49734663869003      -0.20000937751235
Cl       -4.03254088161910       1.18968348171807       1.74011826915253
