26
C8H11F3N2O2 optimized with DFTB in AMS.
N        -1.28567725446166       0.43951046202646      -1.12743261544268
N         0.43750868749146       1.04945083284147       0.00945120431467
C        -2.65178525076413       0.02905837554283      -1.45268288640589
C        -0.68674115171420       0.33663823752852       0.05770759693187
C        -0.55164591973002       1.27171966757587      -1.92875557008452
C         0.53415265892597       1.65859964990113      -1.21081600112398
C        -3.11955348228694      -1.14149550554134      -0.60542423291094
C         1.25883283483613       1.39403336865996       1.15788521038281
H        -3.27833514624813       0.91310635294770      -1.28061592370010
H        -2.67239531036463      -0.22313199169254      -2.51646521249799
H        -1.04213012894825      -0.20777656078872       0.91424578073791
H        -0.88094897287732       1.54434841940510      -2.91518848807468
H         1.33755815503478       2.33206294402979      -1.44872925549675
H        -2.41893772585270      -1.97440594765656      -0.66909308318311
H        -4.09016828272946      -1.47036111240491      -0.97484350291068
H        -3.23168801662808      -0.84441032536173       0.43609713273900
H         1.03284909247550       0.71305501809992       1.97531975012807
H         2.31138955282146       1.33020053824812       0.88591797446163
H         0.99952301055255       2.41736009121686       1.44153806679455
C        -1.71835419825982       3.14596491089004       0.16386450016078
O        -2.41954646263814       2.97248501621202      -0.82413251728489
O        -0.60097606054570       3.61573272169372       0.33389863299752
C        -2.35399326185964       2.48304183792331       1.53071488799340
F        -3.08751251012069       3.29453441765070       2.29644817007216
F        -1.36939554152281       1.97680005641329       2.32244859528820
F        -3.13703176158554       1.41152295713896       1.22777024841367
