31
C9H19NO2 optimized with ForceField in AMS.
N         0.83564538855579      -0.00590591897999      -0.03309500135366
C         0.09060534483622       1.24344049048102      -0.36676466802306
C         0.05715167987098      -1.21492655294973      -0.43210953855953
C        -1.33797666718986       1.27353861010433       0.20485576982251
C        -1.37224429732820      -1.23609477604010       0.13826587670338
C        -2.12359329319667       0.03998572532522      -0.23388812926387
C         1.18199424981831      -0.04906098094479       1.41142135578938
C         2.10857882803805      -0.00223218654023      -0.79543915977203
H         0.00836709243789       1.35888465064389      -1.47264364448074
H         0.63935282024521       2.13840368511895       0.00538671256071
H         0.58084911265245      -2.14295964366714      -0.10797035916222
H        -0.02705809047911      -1.26929229388706      -1.54248448807720
H        -1.85744267055826       2.18313599477026      -0.16677244574198
H        -1.31872362761686       1.33998896744680       1.31271417991758
H        -1.35563668591689      -1.36143087399854       1.24107259813935
H        -1.91625557238207      -2.11022535763949      -0.28033922184566
H        -3.12028166028144       0.04064311083599       0.25740932948003
H        -2.28289705631985       0.07133403641912      -1.33445689077191
H         0.28533990759786      -0.05431181976061       2.06149327926126
H         1.76943419927422      -0.96306205290610       1.65349454797567
H         1.79329675816499       0.83480439683196       1.70161387595045
H         1.92490688207320       0.03376707767744      -1.89304647707645
H         2.73121277758185       0.88145934346646      -0.52910513900910
H         2.70638521067733      -0.91785630101343      -0.58522781500687
C         5.56527394383134       1.23669174860487      -2.17065793814702
C         6.19950576678792       1.91241815501102      -3.34449632485001
O         6.06912557183512       1.44093610345771      -4.46245006726347
O         6.84558960938290       2.93656128759762      -3.19073591633440
H         4.46587199309374       1.20190641546508      -2.31562496517897
H         5.95498304846249       0.20094097729280      -2.07967913607061
H         5.78748027815136       1.78823706267666      -1.23191021751159
