37
C11H23NO2 optimized with ForceField in AMS.
N         0.26243671228706      -0.11263911406096      -0.19556323148797
C        -0.61709728632805       0.70612202273380      -1.09237692884917
C        -0.49104030091016      -1.33640631850762       0.23318607932828
C        -1.97370139666049       1.07798496180880      -0.47096486730940
C        -1.86280561233665      -1.03806719891582       0.87218360831860
C         0.69888559236403       0.65986571985894       1.01994333955664
C         1.43958161741272      -0.54145863946744      -1.02660553216474
C        -2.72685937887289      -0.17819308628801      -0.04522149951534
C         1.55443793550409       1.90953336274391       0.74575417724227
C         2.52910454538196      -1.34026348713909      -0.28660719855258
H        -0.83623528899981       0.14283487908957      -2.02993089920365
H        -0.10871026910966       1.63503665533121      -1.42520536703417
H         0.09139722287046      -1.92258965969504       0.97644542257975
H        -0.66934610034071      -2.00931000903407      -0.63739690180637
H        -2.58084185777423       1.61936964270879      -1.22853883261821
H        -1.84639141047153       1.76666920562489       0.38933333346460
H        -1.74289971185166      -0.54307615309952       1.85816844136283
H        -2.38852922263503      -1.99904302159206       1.06068152401600
H        -0.16989760846268       1.00122424978133       1.61494317471151
H         1.26616148372991       0.00340425261786       1.71465263464928
H         1.09903876220769      -1.17380756639276      -1.87887069914323
H         1.92726037801787       0.33747805365150      -1.50281813820344
H        -3.66047841508358       0.10944306929750       0.48449410108846
H        -3.00979886715405      -0.76610784734265      -0.94632565012967
H         1.83371170165675       2.37018285076213       1.71683274111656
H         2.49782163597627       1.66337243507933       0.22042407334339
H         0.98848843927153       2.67300278280600       0.17764808003140
H         3.31775462353859      -1.62501594179024      -1.01466121361127
H         3.02025034543974      -0.73604843086115       0.50178496398275
H         2.13026394817360      -2.27854054519553       0.14656930794264
C         1.56490510010955       5.64919879142703      -0.40358720319122
C         2.20554543562297       6.95076594224649      -0.03852524400967
O         3.05532840581759       7.43711265223539      -0.76685721168463
O         1.88273128216305       7.53019130571990       0.98633197389726
H         1.04752614570636       5.74889129228196      -1.38090233933668
H         2.34260873780801       4.86063061001262      -0.48121514446129
H         0.82257078603139       5.34750924216300       0.36623247168049
