43
C11H21F2N3O4S2 optimized with DFTB in AMS.
N         0.41229895642148      -1.54580061903870      -0.10066844304019
N         2.14625303636360      -0.33017189148294       0.29855201313519
C        -0.68844408229699      -2.48113872103895       0.09451894496475
C         3.27892590173882       0.19367090106822       1.06796931546789
C        -2.01806989209848      -1.85212300658816      -0.32047808020547
C         4.13744376812283       1.17482842438370       0.28142148733112
C         1.16343786724352      -1.02604522829057       0.86627130154776
C         0.93650493211237      -1.18891715308254      -1.31468363507034
C         2.03200454235822      -0.42794917508616      -1.06105049008742
C        -2.36480756602628      -0.63190754932530       0.53904328844367
C         3.39048897806473       2.46542656687830      -0.06851879991373
C        -3.69619379415406      -0.01508222199844       0.11559597800049
C         4.27493881067649       3.41139937263181      -0.87859351356557
H        -0.47083245438905      -3.36750856414816      -0.50792491050205
H        -0.70088892548402      -2.76434494639005       1.14993785986855
H         2.87324421686617       0.66361516759746       1.96930446950134
H         3.88115008866220      -0.67229567857073       1.36287942676496
H        -2.79724908144861      -2.61234198350413      -0.21551186193954
H        -1.96974789210523      -1.56220991597558      -1.37453342436048
H         4.51362692017960       0.68977855939816      -0.62290156804059
H         5.00233994301548       1.41218105710374       0.90814182130208
H         1.01635534468986      -1.16255368391850       1.92299047990496
H         0.50885960497149      -1.52326855402368      -2.24290470633140
H         2.73996890267858       0.01235264454188      -1.73791127452333
H        -2.41813284285625      -0.93250920425901       1.59089809778685
H        -1.56962987048664       0.11578478171478       0.44494632963711
H         2.48908075388966       2.22846465943505      -0.64417230697441
H         3.07243035911664       2.96224160362258       0.85483377119751
H        -4.50396849226558      -0.74003762026750       0.22174259129453
H        -3.65335026581104       0.30819433774716      -0.92523813829792
H        -3.92042921089967       0.84975057328627       0.73984136692248
H         4.57879922202268       2.94071357884220      -1.81435279339621
H         5.17096507262603       3.67248910764695      -0.31438184272751
H         3.72989870757409       4.32674214051070      -1.10973876324039
N         4.41329795304180      -4.16474851520151       0.04766422253441
S         2.98325789673536      -4.03075908033346       0.69939320727010
S         5.12649945175034      -2.81588639562496      -0.40190245042965
F         1.98662729307443      -3.71675199282026      -0.58058054162382
F         5.50483451708038      -2.09148694949931       1.01391989215698
O         2.54939355794801      -5.31003362071484       1.14506363430932
O         2.75239434463385      -2.89390169848681       1.55570456134164
O         4.30113352902781      -1.83257183127335      -1.05011211573946
O         6.38125727203538      -3.14427916046532      -0.98177552507420
