35
C11H17F3N2O2 optimized with DFTB in AMS.
N         1.14858188222231       1.83462866654180       0.45322540648045
N        -0.00816864845429       0.31572730021378      -0.53412649806346
C         2.19993792295342       2.46967247345763       1.24558212980766
C        -0.40501622216014      -0.99507275622000      -1.03657201914014
C         1.00304509286155       0.51863114022476       0.30600754704919
C         3.57610781954838       1.88777319097979       0.90827617550664
C        -1.23224730395921      -1.77459548750076      -0.01159556812791
C         0.21576541808210       2.48295829795649      -0.31261653603425
C        -0.51745215705318       1.52168821856995      -0.93331929107073
C         3.89992698604794       1.98547039573133      -0.58065707717526
C        -0.46202274866453      -2.09081327806902       1.26919139027222
H         1.97049596042891       2.31406048696798       2.30472762192061
H         2.16659916587348       3.54170651432327       1.03219054102646
H         0.51815743850045      -1.52805392244657      -1.28657058488039
H        -0.98720028916486      -0.83604644288663      -1.94739312029541
H         1.62789497872772      -0.24819578069835       0.76346275120532
H         4.31345474365519       2.44932324640346       1.48952532370223
H         3.61999327408696       0.84231234600710       1.22512620802198
H        -2.13878098040994      -1.20970058814773       0.22899868473645
H        -1.53508582800004      -2.70856765492613      -0.49356137750790
H         0.15114758126706       3.55612284419425      -0.35257204960556
H        -1.33972190765153       1.59795232701111      -1.62304850554500
H         3.80185875420915       3.01383839669516      -0.93248148240591
H         3.23315449529592       1.34570917799169      -1.15844299243887
H         4.92298755117736       1.65226220154905      -0.74993230223188
H        -0.30984511906153      -1.18747956059563       1.86048996847873
H         0.51113161865691      -2.52570008481753       1.04013837279727
H        -1.02947343024858      -2.80084987326953       1.87034364167021
C         3.19182971349034      -1.56069415686016      -0.28283599128498
O         3.00316331490370      -1.44802131850546       0.93375110552163
O         2.62827369047659      -0.98613686134997      -1.21858276959534
C         4.31040719774240      -2.61826790200707      -0.70844309383264
F         3.75331358405568      -3.81570169754302      -0.97905702152725
F         5.22345850897755      -2.81781302359474       0.25205943925158
F         4.97382191798684      -2.23656364668025      -1.81050782408575
