31
C9H20ClN optimized with ForceField in AMS.
N         0.26275774732464      -0.12762396826271      -0.16986364134462
C        -0.57119163554520       0.68350313010603      -1.11543105711938
C        -0.52101133885328      -1.33411986024665       0.25399794830033
C        -1.94310265338828       1.08761399062142      -0.55017028240448
C        -1.91270756571668      -1.00917143866504       0.83296505029713
C         0.66231833841924       0.66529522772527       1.04569339465615
C         1.46513514538439      -0.58744360303828      -0.94602000425329
C        -2.73013281564160      -0.14854450583787      -0.12630718204213
C         1.54746142325705       1.89662244363495       0.77879108612931
C         2.50775101688131      -1.39494000524059      -0.15011897696190
H        -0.76579524476545       0.10364244761773      -2.04855669419170
H        -0.03709967663228       1.59711461300432      -1.45001533855578
H         0.02416578368070      -1.90981480540089       1.03241295503762
H        -0.67090772572814      -2.02469674152282      -0.60793423040777
H        -2.51404763433267       1.62067373502254      -1.34117773911655
H        -1.83803887221959       1.79379565357560       0.29912132381588
H        -1.82451979067641      -0.50618501667337       1.81845351732140
H        -2.45746691471074      -1.96246056096176       1.00877801588890
H        -0.22391000698179       1.03122656549096       1.59958596284359
H         1.19007689783660       0.01681544882771       1.77847774243690
H         1.15087488729211      -1.22411263423098      -1.80548439846005
H         1.98732543564398       0.27611078460710      -1.41164998961958
H        -3.67415675783676       0.16454280160286       0.36966994849873
H        -2.99514719956351      -0.74651831594894      -1.02633806302693
H         1.79317270986325       2.37361025692915       1.75106338212431
H         2.50802838479542       1.62493406899409       0.29820862638146
H         1.01932164899805       2.65770081863911       0.17069562413983
H         3.32093382287657      -1.70343893363963      -0.84039882856081
H         2.97358562709193      -0.78913059672698       0.65251896901170
H         2.07391319689889      -2.32042984079568       0.27696245537625
Cl        2.86657891794826       1.73726453359333      -3.92216199489452
