37
C11H20F3NO2 optimized with ADF in AMS.
N        -0.13285688183076       0.58954474471775       0.29130298078226
C        -0.95348530232298       1.12470157485225      -0.86769173334855
C        -0.75091736052499      -0.71637475948619       0.79089905677676
C         1.26017207674447       0.31354418756185      -0.24372923448285
C        -2.42944435668684       1.27862096855781      -0.54072553013768
C        -2.23277038760464      -0.59781126825691       1.09514023984897
C        -3.02711012060195      -0.05153960000322      -0.08579175074975
C        -0.05221514268627       1.62186831235947       1.37939981069627
C         2.26223107602659      -0.24524088545683       0.75087737653755
C         3.60388852759904      -0.45571230734104       0.04702157026945
H        -0.82125129701492       0.40175578923095      -1.68940596827970
H        -0.49064729798839       2.07923372454977      -1.16231823094890
H        -0.21409994240685      -0.99190594872253       1.70616895645769
H        -0.55826766243330      -1.44565669488061      -0.01461281324294
H         1.61693051851637       1.27360935545193      -0.65334749689387
H         1.12645117498517      -0.38625432022326      -1.08486469468916
H        -2.92605580472812       1.65307917060288      -1.45151177174432
H        -2.57661554262678       2.04814453968739       0.23478317976653
H        -2.35174379212474       0.01088481927904       2.00760830577635
H        -2.57305667944500      -1.61033378497471       1.37025447974413
H        -4.08435284955846       0.08144351970899       0.19228258260343
H        -3.00182419773532      -0.76740171388436      -0.92977792121498
H         0.39035123423899       1.16960362505188       2.27544003486065
H         0.51445837630342       2.47669046264967       0.98605583924922
H        -1.06171490351329       1.91966826922385       1.67483006663655
H         2.39296106598258       0.44063950512617       1.60125688933880
H         1.90857672868120      -1.19990207164808       1.16752152003735
H         3.50999818055504      -1.16036717414212      -0.79469887988495
H         4.00614092260140       0.49199579665365      -0.34571763968315
H         4.34071327486539      -0.86915199881160       0.75004401204653
C        -0.65491915554608      -0.26568696793635       4.75083756667497
O        -0.94794168781437       0.32647275685657       3.66952145873282
O        -1.00524212503125      -0.08775942052135       5.92185872212132
C         0.34169182687846      -1.46069757294903       4.49966956121805
F         1.46313896559295      -1.06041842435480       3.77606325218920
F        -0.24605966943742      -2.45416817205771       3.72845958670848
F         0.80983818169163      -2.06446767217122       5.61722177332748
