38
C12H22N2O2 optimized with ForceField in AMS.
N         0.37247876932207      -1.60841876305714       0.31137038852190
N        -1.75099908266126      -0.95314249401308       0.25017663784387
C         1.76698318081758      -1.72704327213877       0.73133659708391
C         2.66038729214239      -0.76009342773794      -0.05632893017768
C        -2.99649349646214      -0.27482682166785       0.60407459411359
C        -0.61834227769280      -0.98577805068267       0.97845664561939
C         2.29073640554355       0.70624512426125       0.21180730178692
C        -0.15335345925549      -1.99250260004278      -0.86951277713824
C        -1.47192274835474      -1.58891874962491      -0.90628370478484
C        -3.23749207100979       0.94444005306029      -0.29587788366465
C         3.25140853991592       1.65844040977224      -0.49309619093401
C        -2.12479106272604       1.98476743689182      -0.16663159658663
H         1.85878510055479      -1.51291530204284       1.81906096453660
H         2.11197516227152      -2.77047393209088       0.56602577671232
H         2.57423463007404      -0.97574905913971      -1.14374561914309
H         3.71469755256267      -0.93587375458447       0.24585918092913
H        -2.96470937721289       0.05366367002228       1.66645878340931
H        -3.84319195437060      -0.98655108330261       0.49840340257226
H        -0.50155042749411      -0.51795235506221       1.94854271943120
H         1.26222638957801       0.90834492759818      -0.15640296625434
H         2.31927573101029       0.90924320624531       1.30454321761533
H         0.38863659612364      -2.49893109487699      -1.65752997850997
H        -2.16346829781752      -1.72006695279619      -1.72823098153156
H        -3.31793622702156       0.62182254885618      -1.35633161125372
H        -4.20224397116454       1.41468950071169      -0.00791106435418
H         3.23734195398458       1.47946884882355      -1.58928518091405
H         4.28420491313530       1.51805702435897      -0.10971082008587
H         2.94117629850704       2.70748625653193      -0.30133512952055
H        -1.17002944272430       1.58257108687647      -0.56601772203847
H        -1.98492064350475       2.27509412010492       0.89638180528384
H        -2.39213273451043       2.89035119581837      -0.75066384786817
C         7.13967976237056      -0.52010887769380       0.72788399988758
C         7.34440781699197      -1.88661123313049       1.30065110063216
O         6.94769016403998      -2.14115763376079       2.42617606090057
O         7.90708774059902      -2.75022138481168       0.64702768943176
H         6.05393518428427      -0.30349680841889       0.66204021881049
H         7.62278649498903       0.23524161180502       1.38256561190491
H         7.58136448876472      -0.45066677996180      -0.28917142896700
