39
C11H19F3N2O3S optimized with ADF in AMS.
N         2.04610140335866      -0.94678274772255       0.15280720092455
N         3.23430932865367       0.87149763462128       0.17619591846682
C        -0.33282031426866      -1.63008213312429       0.37572969511284
C        -0.91567694156694      -0.29281106788048      -0.06962659791455
C         1.02880613217999      -1.93658786681286      -0.24034750507135
C        -2.21831487671273       0.03736831963573       0.65633459102395
C        -2.72952076555335       1.44106418467287       0.33907294172630
C         2.33716822204268       0.16907431858567      -0.53033472433298
C         2.74940262479556      -0.93830780077346       1.33413066908564
C        -3.93577917446534       1.82093233532904       1.19423689819792
C         3.50226298464153       0.19780563073427       1.34790058657115
C         3.78358667121289       2.16776337554371      -0.20721829524969
H        -0.23818414483664      -1.62156068751531       1.47420788199605
H        -1.00479305492441      -2.46228315781724       0.09793247565243
H        -1.07074252938865      -0.28782882117690      -1.16770752154878
H        -0.19809241583040       0.50610366873465       0.18133589377009
H         0.98612802504342      -1.92252341879898      -1.34130271778349
H         1.41390312845806      -2.92014746929769       0.06879530619458
H        -2.99262162030912      -0.71551174975463       0.41323481337629
H        -2.02580932614399      -0.01745709501836       1.74149680262980
H        -1.91278521327800       2.15619766719932       0.54037452665248
H        -2.97738422073926       1.51882313762583      -0.73710627633410
H         1.91860562445150       0.45268403206875      -1.48640639179060
H         2.60569881364633      -1.69732990697809       2.09124419667733
H         4.14316085955278       0.61339576546197       2.11440707654740
H        -3.65339160411570       1.80052347006930       2.25826527199560
H        -4.29637881576625       2.83382643315919       0.95745595205297
H        -4.77193868511352       1.11851260343141       1.04145614669630
H         4.84513002496732       2.19458838580270       0.06549597704980
H         3.68601762890411       2.28814069437648      -1.29160324188168
H         3.23649591547896       2.95947576473805       0.31712307413643
S         0.26688603070231       1.49136071429502       3.38891153151682
O        -1.15831211528229       1.81967795885843       3.28035074249296
O         0.69428485599987       0.30805467700557       2.60466695238766
O         0.89492848216748       1.62980753563929       4.70401729139463
C         1.07382999160959       2.89836664185378       2.41667126378457
F         0.66496859051348       4.12098085141709       2.82455459461456
F         0.81328532716337       2.81674420525343       1.06256094703563
F         2.44924630305171       2.87522866775802       2.53470023574366
