43
C13H27NO2 optimized with ADF in AMS.
N        -0.18007943198731       0.15002455428859      -0.23149013343085
C        -0.11102359218816      -0.88473662148344      -1.34217681536343
C        -1.64608465160773       0.15524923419999       0.13338291901266
C         0.65956332841266      -0.26653003862180       0.95291492735343
C        -1.37168699132418      -0.64252992680920      -2.16654945621060
C        -2.39620909369892       0.00165796607787      -1.19287431843980
C         0.25267198097581       1.50047689303069      -0.78872677749665
C         2.14040780221871      -0.36712518103626       0.64981816638936
C         0.31234444088468       2.60621639693151       0.24488058257994
C         2.91281368495932      -0.87340411211248       1.86540584143339
C         4.40968146558906      -0.98359487993347       1.57497812939145
C         5.20278812533521      -1.48481092786990       2.77814223094716
H         0.86902364564291      -0.78296657001742      -1.87742412534871
H        -0.15538688589162      -1.86132454184870      -0.83406478306149
H        -1.80489855675742      -0.71429811199757       0.78820364374123
H        -1.88264535238517       1.06812832456838       0.69416098758779
H         0.45192996181360       0.45489696679557       1.75897521376440
H         0.25518490032846      -1.24379020360951       1.26535511026793
H        -1.16136218360045       0.02361321398807      -3.01599818627134
H        -1.73686683470922      -1.59132951728803      -2.58465868905230
H        -3.28725651781103      -0.62652393506961      -1.04711634459528
H        -2.74404486518409       0.97539872362212      -1.56762373691899
H        -0.47331559920428       1.73900911789419      -1.57903112595021
H         1.26310696613020       1.35737581126396      -1.25450516574928
H         2.54173359637277       0.60396103232156       0.31990968666662
H         2.30605110838641      -1.03287032879523      -0.21393875791064
H        -0.62700746401834       2.76733006849964       0.79736342907506
H         1.12845435189290       2.44818705671504       0.96378483104420
H         0.54280178704733       3.54004015512859      -0.28989836072193
H         2.52933582050410      -1.86523068472343       2.17435548928264
H         2.75864408861062      -0.19506472627606       2.72708234319940
H         4.55778654221459      -1.65870693347911       0.71371393726036
H         4.78679103855562       0.00344499806238       1.25436794720724
H         6.27737918977457      -1.55861600297492       2.55129891101929
H         5.08548379521864      -0.80522627969377       3.63807169057592
H         4.85502829049429      -2.48273196614571       3.09151196942633
C         4.50396898313485       0.35634982614920      -3.39792019309876
C         3.25087177904609       0.33699106149407      -2.51564361490940
O         3.00144618594197       1.38550939687629      -1.84410883105729
O         2.57525013958901      -0.74111777797823      -2.52850125167204
H         4.26510728761477      -0.04717988669724      -4.39262067403936
H         4.91216065619148       1.37207764178956      -3.48611028746611
H         5.27025329838727      -0.30162515763618      -2.95858950726132
