29
C9H17ClN2 optimized with DFTB in AMS.
N         0.94019137273130       0.02495307908147       0.36800861987291
N        -1.13799229595933       0.09707915546654      -0.21337194127218
C         2.25856279007823      -0.50284541758027       0.70566807314816
C        -2.39520706994328      -0.35131729537765      -0.80208922466241
C        -0.11824202861693      -0.72559163209920       0.05034661856715
C         3.36284533368412       0.10176750558781      -0.16545856024619
C        -3.59539590709158       0.21355742570779      -0.04666876215742
C         0.61594833834092       1.35124666328780       0.19394923127978
C        -0.68407032937421       1.39385917041883      -0.18279127961695
C         3.15766249079656      -0.17664684765474      -1.65169560559455
C        -3.61530007072766      -0.24545018927476       1.41053666137381
H         2.21450311353229      -1.58645537453538       0.56776641586463
H         2.45307160655230      -0.28771684497687       1.76245851184794
H        -2.39131000933379      -1.44309115167126      -0.77731698249987
H        -2.40120557126475      -0.02950496698545      -1.84777042851094
H        -0.19656629514966      -1.78456616964655       0.21054115380468
H         3.41862863875011       1.18064228257487       0.01083143844553
H         4.30797786887254      -0.33798624441027       0.16827279779837
H        -3.57742843744083       1.30672878149810      -0.08940574812392
H        -4.50246505567795      -0.12759305503998      -0.55319247256125
H         1.32402614387574       2.14328009224615       0.36050287882406
H        -1.31833141219304       2.22885040525925      -0.42257404531615
H         2.23411249209684       0.27910210257931      -2.00395437014850
H         3.09793451138485      -1.24888420347517      -1.83413274755564
H         3.99242004320856       0.23349831971356      -2.21986260271157
H        -2.71412339672630       0.08796699779478       1.92711092734483
H        -3.66565480258063      -1.33346145058448       1.46723945981281
H        -4.48330702933058       0.17077235356088       1.92097262759261
Cl        0.19589209020619      -1.54471748576511      -2.29144659209971
