47
C13H26F3NO3S optimized with ForceField in AMS.
N         0.97905067721543      -0.31228889247222      -0.00491686726615
C         2.05997087038941       0.06659133949731      -0.96763476000989
C         1.63213955175493      -1.24675189749253       0.96270115530282
C         0.49194358650754       0.90193393634334       0.72855081953111
C        -0.12051934906592      -1.01798760766234      -0.74103858847714
C         3.26652752531263      -0.81463774566717      -0.70283031478302
C         3.13107634262831      -1.18129705441881       0.74799667204614
C        -0.24077358421722       1.93926988674693      -0.15700663985774
C        -1.31325247395862      -1.45262548542051       0.14536194860945
C        -0.55516830535914       3.20968662006250       0.64239507423259
C        -2.30973085471575      -2.29486600125617      -0.66069132738402
C        -1.28834946451066       4.23853761345221      -0.21468188986325
C        -3.49508761088962      -2.72741566245360       0.19864595216612
H         2.39611006013442       1.12055443041743      -0.83358083235214
H         1.75223241521973      -0.02705956965106      -2.03453983476581
H         1.33034389618216      -2.30630399861995       0.79474006302401
H         1.39136595817126      -1.01938203954396       2.02661989924184
H        -0.18973410469967       0.61022710806359       1.55786129171592
H         1.35482215100561       1.40686018411518       1.22296058485734
H        -0.51048309622709      -0.38074019912427      -1.56519755038006
H         0.29226406092583      -1.92396281715415      -1.24357168901026
H         3.21091556884759      -1.73134659640368      -1.33118574349799
H         4.22242065609437      -0.28195339664682      -0.90245486914058
H         3.56749280470473      -0.38173551328430       1.38485338706375
H         3.62682655704099      -2.15088228067444       0.97390160598460
H         0.37934945702048       2.21139220040562      -1.03673109765637
H        -1.19937395139264       1.51720072144971      -0.52431334859004
H        -0.95901511173001      -2.04797650184056       1.01297844401255
H        -1.84780066864001      -0.55980635231658       0.53114146448701
H         0.38921053001028       3.66200984452960       1.01602567467547
H        -1.19203093555349       2.95180336192555       1.51662402631730
H        -2.68790290492943      -1.70195001032588      -1.52190229999880
H        -1.80270612545728      -3.20270565829126      -1.05413865600828
H        -2.24521161191592       3.81790224134699      -0.59096459160089
H        -0.65719906703330       4.54315771715995      -1.07648070193003
H        -1.51317261259381       5.13841817216564       0.39593714604034
H        -4.03002426195925      -1.83868841847973       0.59612943987180
H        -3.14837904655812      -3.35656757332008       1.04591689992173
H        -4.20340604204608      -3.32103395759142      -0.41708047111205
S         6.13038123436755       2.82610025645800       1.13549264088932
O         7.15767354929798       2.11496541485822       0.24227956071290
O         6.96159302135549       3.25377068285669       2.35414278072386
O         5.28048900335008       1.66981539166304       1.68098106436038
C         5.19720876572127       4.15600135216983       0.33272626205141
F         4.50965117666187       3.64556363171471      -0.75142536792792
F         6.07106632171323       5.13705416683829      -0.09472077347016
F         4.30090717061986       4.69744361537117       1.23383593654285
