38
C10H22BF4N optimized with ADF in AMS.
N        -0.17970345875729       0.10846363651813       0.31799066951510
C        -0.28637787660926      -0.02955165570321      -1.19506617135176
C        -1.59750246400223       0.46123121805705       0.71221643496319
C         0.25332787769742      -1.18547064925327       0.97135707969698
C        -1.22110739174965       1.10064015441656      -1.61976161282742
C        -2.08241423996581       1.42873782700946      -0.36967021328862
C         0.74434337078056       1.23007355750804       0.68980335804493
C         1.67572166721179      -1.63091532840333       0.62036630789881
C         2.70094073139949      -1.36321942817721       1.72654916293809
C         4.10484415114093      -1.87032003889368       1.37806160340696
C         4.76732049886972      -1.11371851152779       0.22706665942888
H        -0.72914742869360      -1.02320298082658      -1.36782485651190
H         0.71773970095636       0.03179071834850      -1.64100871662169
H        -1.59435656552524       0.86726351454182       1.73392346313475
H        -2.16659900141962      -0.48094526623258       0.69621393154260
H        -0.49639526780763      -1.92704081624111       0.65408015338719
H         0.13895714844039      -1.03068397415487       2.05787235834660
H        -1.83311588869677       0.78022009295118      -2.47452443822376
H        -0.62296269980463       1.96494110714137      -1.94065263955217
H        -1.93996285238609       2.47377752178847      -0.05735888537269
H        -3.15801034099566       1.28403152084743      -0.54658050346253
H         1.75980558242195       1.01307088091734       0.34119834084709
H         0.41921203642730       2.14483229273417       0.18313805786060
H         0.71415198404107       1.34512521524934       1.78166853300170
H         1.64614674852651      -2.71743016733870       0.42371750133408
H         2.00079072536800      -1.16145577193393      -0.32224371868739
H         2.35354948610113      -1.85300203529313       2.65590253192103
H         2.75756576566936      -0.28011673460472       1.93599291922970
H         4.04612349756343      -2.95009602627885       1.14071549731818
H         4.73226149880886      -1.78809587541915       2.28289139542905
H         4.79156368924874      -0.03102333190945       0.42518420672363
H         4.22941109493376      -1.23780410434045      -0.72387164560303
H         5.80109692864127      -1.46014785290711       0.07654012264729
B         2.92915028143760       1.63870699347733      -1.89970368886029
F         3.42864461402718       1.85293695769671      -0.57755955772108
F         3.84738633042092       2.03153161899050      -2.86655969518769
F         1.68706417935568       2.34306730713884      -2.03593293114828
F         2.63375744552409       0.22094440520689      -2.03188113689610
