47
C15H29ClN2 optimized with ADF in AMS.
N         3.05284719551782       0.74642507831887      -0.04652004160541
N         2.71958372420464      -1.38210546718930       0.22566672969243
C         1.60861610816672       2.72700252476011      -0.28547250063525
C         2.96150897450195       2.18937789147570       0.18061012936419
C         0.78942986408615      -2.59964028009894       1.15171173295091
C         2.27756886897276      -2.66118270008129       0.81528910124682
C         0.42799850984041       2.14214790932542       0.48486903415852
C        -0.07148399918391      -2.24774129042093      -0.06066081187566
C        -0.92685457625495       2.56721605055801      -0.07615515303330
C        -1.56358584609855      -2.25785430777629       0.25038290945664
C         2.73867901249880      -0.20058847754043       0.85367463949992
C         3.22161754997840       0.13697578686732      -1.27881919412166
C         3.01562176311177      -1.20537669337492      -1.11253047367503
C        -2.09919700538917       1.98071784544079       0.70790116016760
C        -2.42185269690550      -1.87433016217334      -0.95373846387837
C        -3.45132410211953       2.33160166570810       0.09482445265573
C        -3.91340614397354      -1.84425663853292      -0.63406099148608
H         1.63025679555331       3.82616590021542      -0.18151636744556
H         1.49440739062264       2.51072401386397      -1.36268699060092
H         0.60586877282183      -1.88529033399328       1.97892787139308
H         0.50849741675537      -3.59882165084523       1.53102010273672
H         3.79462804921169       2.66391613469508      -0.35897373676247
H         3.11150417509788       2.36458302340089       1.25726374605398
H         2.90419100460875      -2.86091904608361       1.69795302464598
H         2.45244956167020      -3.41626912461900       0.01678331272284
H         0.50125406776940       2.43870943373659       1.54945534069945
H         0.47499342957436       1.03896372138274       0.45669686531250
H         0.17544217101128      -2.94963019054921      -0.88105472771410
H         0.20448055809695      -1.24315287369745      -0.43550673351340
H        -1.00126863265474       3.67111274735080      -0.08508054152523
H        -0.99707163065076       2.24026299544650      -1.13087394807540
H        -1.78020507993490      -1.56466106931193       1.08846789475441
H        -1.85893337050814      -3.26561778816008       0.60048140501462
H         2.51544550330757      -0.02412131494395       1.89813930144706
H         3.48117332696466       0.70644178540513      -2.16324842645265
H         2.94604952818828      -2.10173655528615      -1.78711597612131
H        -1.98861339550021       0.88224148155932       0.75194459297901
H        -2.05634337923116       2.34240358196686       1.75250714452677
H        -2.22574487398705      -2.58669082168335      -1.77516479952007
H        -2.10152105555794      -0.88282137949143      -1.32633628592780
H        -3.59153300345573       3.42406019456008       0.04379747287380
H        -3.53058880146357       1.93438013207317      -0.92991933039381
H        -4.27967134686098       1.91128627244473       0.68386382473176
H        -4.50979366613750      -1.57297424012085      -1.51826012517009
H        -4.13120061855001      -1.11159287916603       0.16068353830709
H        -4.26057754545006      -2.83004511060839      -0.28255804812271
Cl        2.21520024143430      -3.98958397610726      -2.22612079193552
