41
C11H24BF4N optimized with DFTB in AMS.
N        -1.61266599689054       0.50173820512533      -0.14792575796359
C        -2.00825993932446      -0.39793291412685      -1.29733222977680
C        -2.64052407999609       0.25367967014833       0.91646276104017
C        -0.25892322835377       0.10437434697929       0.37957105615149
C        -3.02296214450170      -1.40475054686953      -0.75765803609619
C        -3.02538695877135      -1.20812442472852       0.75798785801047
C        -1.64627868582300       1.93820701512099      -0.58787788262683
C         0.90559851975902       0.41054286313565      -0.55990116908315
C        -1.31589341059556       2.92511501965760       0.51917396516777
C         2.18728772565004      -0.22280987787007      -0.00968574371024
C         3.37002354021005       0.07405379734818      -0.93745422340089
C         4.65858215256481      -0.55798847242031      -0.41566499580398
H        -2.42451345739234       0.21968588138155      -2.09298261651508
H        -1.11447567165664      -0.88178669955388      -1.68652512063254
H        -2.22948024815694       0.49592796276783       1.89619098608405
H        -3.49767230825203       0.89900147906429       0.71032410749467
H        -0.11728722584554       0.62088627540525       1.33285134351729
H        -0.30886104319630      -0.96975776875192       0.57788656591341
H        -4.01430279008599      -1.19451487706653      -1.16609664312583
H        -2.74908189403461      -2.42476493180182      -1.03042954904125
H        -2.29011128619336      -1.85713029551996       1.23999837168282
H        -4.00330522552544      -1.40453932863672       1.19918157885072
H        -2.65186711817562       2.12125563962889      -0.97188845279857
H        -0.94183777911865       2.04502816957040      -1.41423046087635
H         1.04664890598174       1.48916075233134      -0.65233376624043
H         0.71067335989943       0.01951326282086      -1.55980575183890
H        -1.98833728230432       2.82605239264033       1.37116505753823
H        -0.28877449169778       2.81631720001357       0.86375055474035
H        -1.42887987543191       3.92757920278999       0.10718769509271
H         2.05276178435098      -1.30693149014260       0.07854866938568
H         2.39502578113259       0.17072878901890       0.99222139374075
H         3.15053726423686      -0.31367497335007      -1.93683037875470
H         3.50156078637118       1.15748346480972      -1.02043303683387
H         5.48332663481209      -0.33285796034463      -1.09183541795268
H         4.90429812758019      -0.16864434586085       0.57370005494898
H         4.55310621614371      -1.64170650605307      -0.34551654799809
B        -0.46476101570523       1.35074604723204      -3.74910897954074
F        -0.25073245725487      -0.02104728435486      -3.45936353457684
F        -1.81600542634829       1.64247017061945      -3.40832921716600
F        -0.20163819100240       1.64038032001343      -5.05426321962746
F         0.35346192654201       2.09732439142897      -2.86473208717854
