26
C6H11F6N2P optimized with ForceField in AMS.
N        -0.52734879618243       0.19043384567087      -0.36071953235635
N         1.65736669049898      -0.07270585840984      -0.04610321194418
C        -1.92655778820461      -0.10164695592608      -0.65864772575438
C         0.50372837624318      -0.67658307138619      -0.39113195122532
C        -0.00856628745963       1.37835097878645       0.01125211144763
C         1.34856195691178       1.21464985755991       0.20340453244851
C        -2.73084730247231      -0.20364753115586       0.63170112974762
C         2.97626534902797      -0.68461161418079       0.04936783782869
H        -2.34680347798343       0.69944243175084      -1.30460580573429
H        -2.00402717553351      -1.06429832560868      -1.20975563862766
H         0.41410536774259      -1.72436102503047      -0.64995558768910
H        -0.57405472552222       2.29342749318669       0.13153266909344
H         2.05534085788143       1.97617698948685       0.50232237959472
H        -2.32068426606627      -1.01566935112551       1.26936596609197
H        -3.79029750240374      -0.43496416270335       0.39486793422858
H        -2.68835341787232       0.75571344651459       1.18937843724142
H         2.91726874307007      -1.77151642658030      -0.17309954532545
H         3.66315640652591      -0.20477299226976      -0.67852004859519
H         3.37765315381187      -0.55045769523008       1.07594416563977
P         5.36589981345374       2.94426428718669       1.86741695210794
F         5.73119267381637       3.46358653212507       3.46380300495035
F         3.69591947781335       2.96473845178399       2.26720661096901
F         5.25738494263864       4.58101867467951       1.35637014761682
F         4.99604877468910       2.42475968997280       0.27195123372546
F         7.04418767491494       2.94084053530624       1.49995075619423
F         5.46708822186055       1.30557231419638       2.37338971772577
