45
C13H25BF4N2 optimized with ForceField in AMS.
N         1.36037635092401       2.27777380029426       0.03141087851592
N        -0.84385832287782       2.43614183811674      -0.22042772527606
C         2.73905227577492       1.86447194351085      -0.22100611293871
C        -2.17817404014937       2.23883386675939      -0.78407855554423
C         3.01035860952408       0.46946885889016       0.36153460027188
C        -2.41879959445292       0.75920487799361      -1.12140906089788
C         2.08705699312912      -0.59765140946503      -0.24815426007100
C        -2.36054718081740      -0.13211722039081       0.12843581669104
C         0.33049211749262       2.18617226653066      -0.83172407295573
C         0.82120086726058       2.60707873810097       1.22241539468859
C        -0.54489217824864       2.71299803991688       1.06479169047332
C         2.44644492838600      -2.00079327463178       0.24905478695837
C        -2.56111971888990      -1.60761940418126      -0.23191015326694
C         1.47752383640423      -3.04171506043404      -0.30548084511325
C        -2.48666016916287      -2.49061173267752       1.01100342832827
H         3.43309942353415       2.60212051474743       0.23670284834454
H         2.93879954951777       1.85109645754731      -1.31534813731299
H        -2.27707764691620       2.84919175414618      -1.70740856837951
H        -2.95314493199283       2.58514247512985      -0.06513115880282
H         2.87266224293162       0.49746089982918       1.46486372250277
H         4.06955932678452       0.20386482437504       0.15283791740531
H        -3.42069036295211       0.66271664443826      -1.59330252122513
H        -1.65960880509410       0.42095876378050      -1.86056213827282
H         2.16818895265543      -0.56967638063963      -1.35747118411428
H         1.03471878270341      -0.38013904032023       0.03487822194238
H        -3.15059555332831       0.18601674401792       0.84376325663020
H        -1.37222403925376      -0.01958917029969       0.62406258838757
H         0.42563203287452       1.86077425196855      -1.86068857374276
H         1.37029837036113       2.69746535852893       2.14956490357688
H        -1.26980057470018       2.90151516095114       1.84622858720176
H         2.40454671305169      -2.02841951782782       1.35999046877240
H         3.47851457553953      -2.25918918097797      -0.07409097525913
H        -3.55332210046318      -1.74607189313902      -0.71435026176654
H        -1.77262131552542      -1.92804657983710      -0.94775908335672
H         1.50622344533260      -3.04392946888828      -1.41622846486171
H         0.44312304705044      -2.82211720859982       0.03189670723124
H         1.76121594509333      -4.05016576407752       0.06173437848519
H        -3.30984084947086      -2.23637003214302       1.71243384820538
H        -1.51250873284707      -2.35329035131689       1.52751686845152
H        -2.58402907483370      -3.55692152494312       0.71734477222921
B         2.09593098135657       4.54434111291470       4.76224613689107
F         1.86338201423499       5.35979067901351       3.62273475560698
F         0.85550358845340       4.22142984671533       5.37406824326495
F         2.91238726393906       5.24622730540123       5.68850153445272
F         2.75311894596695       3.34982390467198       4.36458955794872
