42
C12H23BF4N2 optimized with DFTB in AMS.
N        -0.04136929773220       2.55896799674914      -0.56568034940708
N        -2.06864126213914       1.83000366633190      -0.59178076662764
C         1.40418828779081       2.63045045216351      -0.74885574786435
C         2.11054096675018       1.79448199896734       0.32720079409009
C        -3.22649275751254       0.97042618247466      -0.81196388234327
C         2.02746348381198       0.29328601978367       0.03964253890782
C        -3.27014628917606      -0.13634396307616       0.24996900722318
C        -0.85252505874954       1.65003918764028      -1.10814394424395
C        -0.74190701422034       3.29705417976355       0.34748342320710
C        -2.01983741209157       2.83723143405051       0.33144688095435
C         2.45290617619437      -0.52227655805761       1.26443688882653
C        -2.26405591534644      -1.25439660208430      -0.03621762718620
C         2.37046914739752      -2.02109689936963       0.98414477658929
C        -2.13224101480838      -2.18847309302163       1.16462757336105
H         1.69280747047301       3.68159797938131      -0.66745818161424
H         1.64112176503932       2.27151679126200      -1.75489468992566
H         3.15688983874580       2.11087056683174       0.36598048096338
H         1.64916340886038       2.01201730659989       1.29391320098498
H        -4.11762575760440       1.60006923379360      -0.74484283990965
H        -3.15865722831869       0.55469842329591      -1.82175962529390
H         2.65795881731025       0.04531737285815      -0.82272200030257
H         0.99532057219967       0.03141359112976      -0.21077718895124
H        -4.28514985400489      -0.54387095800129       0.26870879695602
H        -3.06041494227991       0.30895389535898       1.22598485454986
H        -0.58598527426581       0.93746532676002      -1.86811107772202
H        -0.27492366563651       4.05324588197293       0.95205387685495
H        -2.87507662089921       3.11265930358993       0.92149007007756
H         1.79194775912960      -0.27403815674682       2.09982220944431
H         3.47711144978764      -0.25620766754194       1.54734994924072
H        -2.57835922068060      -1.81666704053776      -0.92350500765014
H        -1.28516796224227      -0.81308738153837      -0.24436723968794
H         3.02625583986665      -2.29755988422000       0.15616199909763
H         1.34856618657510      -2.30357008325111       0.72663694095172
H         2.67198372164290      -2.58231093592651       1.86878580198494
H        -1.74921567698505      -1.63538542509920       2.02208317208793
H        -1.43799186133712      -2.99623284750846       0.93145099981581
H        -3.09881731405076      -2.62174490768150       1.42596164209473
B        -0.75952979018595       1.22170856302539       2.65563144657074
F         0.05140752557640       2.37533222488155       2.66648796703912
F        -0.47405180713048       0.39042084731605       3.70764897116128
F        -0.51201555533702       0.54442844344239       1.42444682740486
F        -2.11311118631675       1.61637154073810       2.64816275888991
