26
C8H11F3N2O2 optimized with ADF in AMS.
N        -0.04342769217355      -0.40989160288731      -0.49096698137565
N         2.08110005140010      -0.29636860805444      -0.04797903408323
C        -1.34407479899069      -0.98016979568317      -0.87070752683306
C         1.01770718218222      -1.11177695533677      -0.07359386472642
C         0.36035323149901       0.87598244812549      -0.77504947004050
C         1.69388697108651       0.94631949315749      -0.49974188218956
C        -2.49825763846217      -0.30640378941262      -0.15027483887581
C         3.47029187975427      -0.72627238469862       0.07537010409261
H        -1.38424304371947      -0.87665434917743      -1.96850187816601
H        -1.29509258187665      -2.05326555612009      -0.64170506801556
H         1.02779947611169      -2.17184335853562       0.14237724423970
H        -0.30688486509850       1.60322179454776      -1.21605355425051
H         2.40784049841640       1.74409738975064      -0.65315834099694
H        -2.40477268251758      -0.41480750533963       0.94057210629652
H        -3.44318286001735      -0.77043517335710      -0.46761585335369
H        -2.55753189612845       0.76466450765665      -0.39200871128127
H         3.50006932351291      -1.71267616595730       0.55041046553899
H         3.86957420118770      -0.78153825674360      -0.95010080920695
H         4.01864993888842      -0.00234226497577       0.69000247343482
C         1.58124923302757      -0.85757519977910      -3.09100703973930
O         2.69037250422587      -0.30801544477633      -2.89297140577609
O         0.45081322682299      -0.39296351246258      -3.36606904716402
C         1.61695201512911      -2.43470540810608      -2.96836597690482
F         0.42549028411832      -2.98033462871402      -2.52370154177360
F         2.56883478186975      -2.89528870302191      -2.07380410123630
F         1.89193856975158      -3.02581094139851      -4.16512242001337
