38
C12H22N2O2 optimized with ForceField in AMS.
N         1.90173061894338      -0.94212237979317      -0.23470009896091
N         3.14533128502895       0.89688180124457      -0.12033225675051
C        -0.38167695632913      -1.87070720116654      -0.05934402739418
C        -1.05520349565694      -0.51758407855466      -0.32915413373142
C         0.99050085523313      -1.96799824599245      -0.73938486445127
C        -2.46230418861342      -0.46553080925756       0.27553007505738
C        -3.10385088385677       0.90762384695382       0.04365719353650
C         2.37015356980554       0.12690747461313      -0.90816890007459
C         2.40313796327753      -0.84792441017108       1.01309087548459
C        -4.51200578478533       0.96693215975230       0.62726427302341
C         3.17311136411362       0.29531983942725       1.08498407234021
C         3.79565959987463       2.15010539686502      -0.48034462658885
H        -0.26485013636933      -2.02073430353856       1.03630876855662
H        -1.02571843637211      -2.68840622707554      -0.45029022158963
H        -1.12116477342953      -0.35032002416340      -1.42686421478789
H        -0.44032132609767       0.29537185146090       0.11547104422318
H         0.86531583733845      -1.86093488385971      -1.83944165537338
H         1.42782192587929      -2.97150932837690      -0.54742291477625
H        -3.09329807567067      -1.25254495231958      -0.19352568064936
H        -2.40230613918217      -0.66360675132223       1.36861244643069
H        -2.48340670148693       1.69619239029113       0.52305493995780
H        -3.15777001792703       1.11739832333566      -1.04698961163363
H         2.13292066704227       0.35096277245845      -1.94096672747470
H         2.20882458583444      -1.54945262905307       1.81267200077441
H         3.70051181574554       0.66682947550649       1.95419886663259
H        -4.48434907054551       0.78159989690828       1.72217704818977
H        -4.94532836507402       1.97361496896473       0.44845421897209
H        -5.16279351902690       0.20878746397698       0.14189938523193
H         4.89290541247914       2.05478893138935      -0.34176507935334
H         3.58783174415614       2.40602876183300      -1.54131524477814
H         3.41396771123187       2.96771821693215       0.16673953559859
C         2.66531918671611      -1.55083206474949       5.00523402486930
C         2.24398471746674      -0.12861045339331       4.80678478223885
O         1.38674934488751       0.14445022058681       3.98251963337569
O         2.75233638331642       0.76174341560907       5.46893059971226
H         1.78422979116588      -2.16541240643721       5.28575275071585
H         3.10282603551772      -1.94756819258572       4.06579940098509
H         3.42650254606916      -1.62571284679887       5.81099359316123
