48
C12H22F6N2O4S2 optimized with DFTB in AMS.
N        -1.73919905111246      -0.15998584857527       0.86777135478570
C        -1.83872562907420      -1.65198801541955       0.94553905031189
C        -2.76302782111891       0.30927307378481       1.85946416204433
C        -0.38007798085612       0.33768550661313       1.26324255416172
C        -3.31848053573868      -1.95600294438806       1.15041495110465
C        -3.92481814437413      -0.67318711510315       1.73910731452181
C        -2.10189844545114       0.31760346528787      -0.49007081401230
C         0.74686553201950      -0.16246248826294       0.36477246022938
C         2.09412890779593       0.27757285256847       0.95117626946680
C         3.25810005870871      -0.28564479693746       0.13039885950047
C         4.60267889251943       0.12375428590961       0.72787855080882
H        -1.26176654273063      -1.96493049049919       1.81498341813804
H        -1.42206990644218      -2.10078107752227       0.04468304144358
H        -3.03125382581754       1.34321422848403       1.64064514476901
H        -2.30676374005752       0.24635193230819       2.84870275810692
H        -0.20796168402140      -0.00271054638293       2.28667331211041
H        -0.42647758511619       1.43035748088071       1.25679243781312
H        -3.41914778965205      -2.79675222505744       1.83861082865290
H        -3.80215044188657      -2.21893134330730       0.20732345997540
H        -4.71181738965736      -0.27769544600566       1.09305324759443
H        -4.35326200334372      -0.85570042379491       2.72523330705128
H        -1.43107387059097      -0.12856075977894      -1.22066026796868
H        -3.12533613355472       0.02210352105604      -0.70966331355393
H        -2.01544368692389       1.40253595665617      -0.51989254925058
H         0.72154332354534      -1.25320827845639       0.30830085903760
H         0.64348589220515       0.23582071188836      -0.64903467083033
H         2.17062455664579      -0.07867404871169       1.98272965482449
H         2.14583855584457       1.37149886333766       0.96747069623353
H         3.18823996472711       0.07786212927527      -0.90069132892203
H         3.18758363221009      -1.37801213497185       0.10668174046673
H         4.70050933364150       1.21016990760414       0.74310493411224
H         5.41602899869859      -0.29064029452319       0.13227188007792
H         4.69455743587309      -0.24806597283530       1.74889200840930
N        -0.10196992071100      -3.32496418641907       4.98597102790846
S        -0.31168770768122      -4.14343428671961       3.62719435110323
S        -0.89632392667219      -1.94613565937557       5.12720784080536
C         1.01457140424469      -3.49622032479674       2.45314334807301
C        -2.69408327429504      -2.38029230417770       5.49586616348058
O         0.06739500448640      -5.50720617887906       3.85194363036631
O        -1.55161712195802      -3.87720867584640       2.92077697536938
O        -0.99802930880935      -1.13781342100521       3.91138469732492
O        -0.42583932772831      -1.28784784771441       6.31233495629122
F         0.55714867295817      -3.51651777808088       1.19663119366527
F         2.10954213683517      -4.22748997680099       2.51137752407773
F         1.33307561242996      -2.23406853543643       2.73374462876990
F        -3.13274324326359      -1.63778652515433       6.49881719296902
F        -2.82582544569264      -3.65349967776405       5.81081370641665
F        -3.44973792925743      -2.12089182485052       4.42854147186441
