34
C8H15F2N3O4S2 optimized with ForceField in AMS.
N        -0.66394352760093      -0.80708659383167       0.40551262534746
N         1.52211779295240      -0.41083065726506       0.30773990001239
C        -2.06303260867290      -0.75135052891094       0.82622358849131
C        -2.93574804047470      -0.08252071387714      -0.24283434686397
C         0.37136847105905      -0.14235765339636       0.95455310649557
C        -0.15004506854401      -1.52655779903749      -0.61275447806486
C         2.84431725720343       0.13222447975145       0.60961955167978
C         1.20632828717010      -1.28058547994441      -0.67352292609100
C        -2.53964862283947       1.37460328843069      -0.47586849660117
C         3.30465736709226       1.06519259521053      -0.50456930064213
H        -2.15383464234989      -0.18996794128508       1.78243251484874
H        -2.43033812178035      -1.78432878805036       1.00791614554788
H        -2.86001756566280      -0.64367735952187      -1.19915105285225
H        -3.99597419939984      -0.11590883707412       0.08862039080319
H         0.28589599426044       0.53509881949332       1.79470495460801
H        -0.71853503384786      -2.17733608903445      -1.26452777687385
H         2.81276612709243       0.70317227357117       1.56279058433176
H         3.57025282164311      -0.70069006053350       0.72872886788745
H         1.90795834535958      -1.70209764437966      -1.38168925562252
H        -1.50582926597259       1.43781604213924      -0.87685932410110
H        -2.60084077314256       1.94850075164785       0.47321421225363
H        -3.23056429781809       1.83332691403755      -1.21398533542487
H         3.38615479016470       0.51115401782725      -1.46351475412575
H         4.29938573706333       1.48774359072175      -0.25042678929332
H         2.58020746219257       1.89876182235608      -0.62450743627116
N         2.97350721747510       0.08331816688711       4.31594836162850
S         1.42583423636679      -0.01023074138546       4.83782313015161
S         4.03316729016845       1.13392203691567       4.98711681319137
F         0.62583114210118       1.41206235529583       4.46302809657635
F         4.43019053523684       0.61021897205483       6.52708532048906
O         0.73809359996776      -1.16540215731866       4.16833841165486
O         1.40204367877190      -0.20182524638820       6.32801436750021
O         3.41172468136693       2.49881122706854       5.08296215431978
O         5.27561436619763       1.20089768242557       4.14599686370904
