59
C17H34F3NO3S optimized with DFTB in AMS.
N        -0.12632210441718       1.99484735901730       0.40087082447112
C        -0.79428964585235       3.00210387862424      -0.48230413903476
C         0.48819372281975       2.84029794968847       1.47932726123725
C        -1.13238935479566       1.05427942476416       0.99593486720383
C         0.93928268160314       1.27622912129319      -0.38189117564590
C         0.14358300513733       4.20641481797475      -0.51146190783799
C         0.96734679533044       4.10818111578279       0.78219908463496
C        -1.88016929648808       0.20443683658567      -0.02537191749237
C         1.64142335886885       0.15165998271646       0.37616501034161
C        -2.79533654129080      -0.76746536352990       0.73069252616259
C         2.76510156189440      -0.42773668955759      -0.48885679190354
C        -3.54260793797356      -1.68960577511621      -0.23595014214807
C         3.48644493874459      -1.54911046858154       0.26518669888465
C        -4.44607041710269      -2.66686030488302       0.52285438352038
C         4.62181855506511      -2.14347892016718      -0.57311524957289
C        -5.19261053513145      -3.59367193152771      -0.43487962587001
C         5.34113213599596      -3.26025429063270       0.18162328291297
H        -0.97681879995957       2.57122536845715      -1.46678422093209
H        -1.74809170338727       3.26323467128933      -0.01849823176991
H        -0.29122899644856       3.05502031689991       2.21217875863358
H         1.28544728286274       2.29088395605500       1.97680602157496
H        -0.60527192904034       0.40973242388869       1.69746529860248
H        -1.83553984947550       1.66619684920001       1.56545686237976
H         0.46527897226068       0.88180444951969      -1.28478058695358
H         1.66841506742207       2.03165870762642      -0.68519403976065
H         0.79150167833604       4.17178912290728      -1.38989925958887
H        -0.43478873448783       5.13080998192903      -0.55354946827175
H         0.80329988201245       4.97321357849019       1.42670939775263
H         2.03421670980487       4.05280523300653       0.55647153867500
H        -2.47679853412465       0.83287128140594      -0.69422841351430
H        -1.17907932089053      -0.37087291977373      -0.63583393679889
H         2.06666648286305       0.52217943013188       1.30997553771966
H         0.93565295389824      -0.64311116411959       0.62519009098836
H        -2.18925501685113      -1.36647816463146       1.41757379588345
H        -3.51474471500656      -0.19833113063061       1.32823774168920
H         3.47895152522271       0.36380366123746      -0.74367781262930
H         2.34899274189656      -0.81754953218202      -1.42502250270194
H        -4.14823491413509      -1.08712290964539      -0.92245425983232
H        -2.81843905881918      -2.25178465355323      -0.83588928404864
H         3.89030957390711      -1.15203780341645       1.20176483040922
H         2.76752849092512      -2.33472855300352       0.51913138946161
H        -5.16887929983821      -2.10306191189765       1.12203152209119
H        -3.83750853681129      -3.26521356453224       1.20863159904504
H         4.21533321019372      -2.53984089578710      -1.51032967836304
H         5.33895746067308      -1.35515560312963      -0.82737732801590
H        -5.82104547166516      -3.01639820097072      -1.11482022543057
H        -5.82741389926165      -4.27864386935384       0.12747099275192
H        -4.48821279868687      -4.17972880776779      -1.02697782852510
H         4.64636044010999      -4.06500603593032       0.42552203211262
H         6.14549608628277      -3.66872871985586      -0.43074604798581
H         5.76925340876275      -2.87900883913223       1.10949489170291
S         0.69334064161213       0.39063413947328       3.84276122931836
O         1.98946698790771       0.97162466641065       3.52191388936664
O         0.37708976640346      -0.80768985849792       3.07758745726899
O        -0.39192083203621       1.36327244902309       3.88333894645651
C         0.85999257881581      -0.19776900580504       5.58551085933109
F         1.14450870153215       0.81587648914904       6.39399208260248
F         1.83003688978824      -1.09795041306136       5.68429026135922
F        -0.27295162177571      -0.75569517037396       5.99587317948196
