67
C19H28F18NP optimized with ForceField in AMS.
N        -1.54223426406730       0.10201626956417      -0.08900206325540
C        -2.55915406815148       0.49724392907757      -1.11782947901778
C        -1.78074150467159      -1.32573201889698       0.30143220131836
C        -0.19877721443860       0.19968494609994      -0.75759332637071
C        -1.61768881659328       0.97640492677522       1.13334391696925
C        -4.01742989979928       0.27305297980752      -0.68256489817699
C        -3.22279115405843      -1.61729622585365       0.76339333451509
C        -4.23975086192861      -1.18315383186082      -0.28752253293169
C         1.02521007910190      -0.12231083948300       0.13551570345731
C        -1.26649303212997       2.45996854532569       0.91775431836288
C         2.32942892010832       0.05623717804026      -0.65311774935161
C         3.55087683155838      -0.29544242174248       0.20458566990266
C         4.84888985209797      -0.10938264073871      -0.58959255680486
C         6.06850809754686      -0.46691289168257       0.25442769517728
H        -2.40909200242357      -0.09572895303032      -2.05063687574842
H        -2.43732124656887       1.55714845497414      -1.42395050698553
H        -1.10840053993173      -1.62811190567150       1.13327960656624
H        -1.55952208093462      -2.00557932033630      -0.55378832882598
H        -0.05822234707510       1.21312297806549      -1.19544715274421
H        -0.15957114738948      -0.49456659821654      -1.62928063953039
H        -2.62980262733849       0.95593884313304       1.58086972361360
H        -0.95749915530299       0.58258506636144       1.93609389856914
H        -4.68809860752326       0.51776950399369      -1.53454925649642
H        -4.30002767724745       0.95067246677969       0.14913032802434
H        -3.43777854121322      -1.11922453057348       1.73185528352529
H        -3.33151734773078      -2.71007247635676       0.93553074767394
H        -5.26790790465987      -1.30590003261030       0.11630696541050
H        -4.14397112625482      -1.83150213357412      -1.18669497322317
H         1.06385449275647       0.55421736236808       1.01291505272910
H         0.97509370825276      -1.17170531524558       0.49224748734701
H        -0.22225988839041       2.59473770781550       0.57322267253332
H        -1.96658789030601       2.95038844761937       0.21359019813803
H        -1.35701067267534       2.99171121071274       1.88884905306109
H         2.41134862654058       1.11251786244981      -0.99259076005214
H         2.31235555572074      -0.60061849583571      -1.54949297878490
H         3.47302737724393      -1.35330589601709       0.53985616573114
H         3.57166613062191       0.36027121669627       1.10309903166497
H         4.83286592632749      -0.75898599848889      -1.49208184911988
H         4.93727155854947       0.94886499646613      -0.91921532276687
H         6.02070407626104      -1.53084017658157       0.57006311762880
H         6.99168887666156      -0.31534976973103      -0.34391505710546
H         6.11865698250188       0.18155687306656       1.15488533261029
P         3.53342858694026      -4.39494313210234      -6.30786878577085
F         4.42986207807741      -2.98388431116504      -5.89541131604888
F         4.01285764685776      -5.75353243667158      -5.36317302094088
F         2.70584556673403      -3.15215561384622      -7.16131336481135
C         2.78075420838372      -3.97603459226021      -4.56999738031434
C         5.23618328264165      -4.56581061365603      -7.21258003833253
C         2.33769295678788      -5.41501513024367      -7.43323705392081
C         2.13749977882710      -2.57546337603657      -4.38042970162225
C         5.51462614140095      -5.89445743183264      -7.94821718482248
C         0.84517236320084      -5.43112582567758      -7.04424403651720
F         3.77923421793374      -4.07325105059529      -3.60861979401653
F         1.82458127813885      -4.91753925665521      -4.24606692388756
F         6.26865733516838      -4.42239558463428      -6.29101034512915
F         5.34954898301009      -3.54923218041803      -8.15054240290146
F         2.74456621769516      -6.73743660722143      -7.42554496700220
F         2.42896481481739      -4.96598024134824      -8.74366445767854
F         1.48050880161206      -2.55114031176457      -3.16263882758058
F         1.21327432669927      -2.27960731987940      -5.35884876862442
F         3.09799912414564      -1.57995130180536      -4.35507470293043
F         6.82375345123456      -5.88671469113788      -8.39714839855510
F         5.36590834584954      -6.98150257508158      -7.10808190647054
F         4.70344467203000      -6.04419709956491      -9.05428279841980
F         0.63105666817763      -6.25489501556015      -5.95507666270316
F         0.11250819964686      -5.94407697170241      -8.10021103417919
F         0.36311312694258      -4.17004172750433      -6.77277735965699
