30
C8H15BF4N2 optimized with ForceField in AMS.
H         0.46098485658314      -0.45039922163827      -4.91111708680775
H        -1.19162066755377      -0.69858184970616      -4.22342148523405
H         0.01144883495399      -2.04517796766640      -4.18211933834519
C        -0.11550838020682      -0.94515185775949      -4.10179557765647
H         2.50204896417985      -0.05045041058098      -0.38944434708972
H         2.42241462939928      -1.16217840565856      -2.81904979590935
H        -1.36818016528219       0.46126493647896      -1.95711026835647
N         0.36974886537987      -0.48855848700765      -2.80616287807735
C        -0.32652071584501       0.17681551104916      -1.86396937727650
N         0.43755115670414       0.43005563959897      -0.78362854099083
C         1.65204799781449      -0.08768799156903      -1.05415979843600
C         1.61056123673275      -0.65803051281616      -2.30959316413119
C         0.02937947638635       1.10969720870306       0.44294848881786
H         0.82143911972432       1.82813901803003       0.74847119990154
H        -0.90430058042048       1.68501771703195       0.25885283637850
C        -0.21365035260318       0.08760783700351       1.55630000400826
H         0.72243572079213      -0.48268963258506       1.74439865178402
H        -1.00051240415491      -0.62563782424312       1.22569653158209
C        -0.66151694464698       0.77810251757243       2.84898165274158
H         0.12362295182811       1.48976741483753       3.18519587400939
H        -1.59814220270844       1.34823548179162       2.66465307952969
C        -0.91432091933205      -0.23914980292455       3.95723384295288
H         0.01353488158282      -0.80884987448842       4.17695828242451
H        -1.71660890437676      -0.94595848022603       3.65613416234809
H        -1.23433970100253       0.28879975338384       4.88008387149148
B         4.68815316842737      -1.20153904902947       1.31563305845054
F         5.95829292628696      -1.48293343168405       1.88430221929062
F         3.66946646963225      -1.78377814959120       2.11601941088343
F         4.62665198441465      -1.74355192838395       0.00391396534171
F         4.49881288471063       0.20500050717749       1.25834186677468
