39
C9H20F2N2O4S2 optimized with ForceField in AMS.
N         0.26260090512032      -0.12387421773482      -0.19130044302306
C        -0.60125399345936       0.69593539575798      -1.10210204853112
C        -0.50200630020848      -1.34306767548655       0.22934732607645
C        -1.96188239475935       1.08072374965802      -0.49833696390204
C        -1.87992345977639      -1.03732448815988       0.85072792930899
C         0.68503164027580       0.64902047180330       1.02833679997748
C         1.45019300557387      -0.55944951466113      -1.00380706446019
C        -2.72910503796051      -0.16720874257136      -0.07192419940382
C         1.56258840087801       1.88382092374857       0.76233647775569
C         2.52746111888252      -1.35593565719770      -0.24351425992032
H        -0.81320509790536       0.12871490180732      -2.03896479347126
H        -0.08350729122234       1.61986467010060      -1.43412465217546
H         0.06799677521329      -1.93000803414623       0.98154731918831
H        -0.67093451792856      -2.01723650266903      -0.64193374478776
H        -2.55710081982719       1.61941779972884      -1.26718567280883
H        -1.84147499075267       1.77707279960402       0.35690373702642
H        -1.76896666722014      -0.54857283954851       1.84082993513175
H        -2.41421799119635      -1.99605706369193       1.02697866942979
H        -0.19100038560408       1.00506547591971       1.60403030319461
H         1.23109899808260      -0.01009513433818       1.73751704331325
H         1.12007478959249      -1.19511978821935      -1.85742607501439
H         1.94637627793774       0.31626634697980      -1.47762613218116
H        -3.66103542314566       0.13213294643722       0.45432162177288
H        -3.01667889467141      -0.75308713214436      -0.97286538703002
H         1.82143939137884       2.35401593844223       1.73417201746654
H         2.51620858149798       1.62226030086738       0.26404398249380
H         1.02065556757052       2.64103758616538       0.16679877093994
H         3.32732014254996      -1.64529648486082      -0.95737391649544
H         3.00724779369721      -0.74913059728334       0.54991795081576
H         2.12035622389459      -2.29082532372296       0.18903772450722
N        -1.44758195280437       5.19555009294842       0.48100838570312
S        -2.44982157851685       5.91035522245627       1.55925458261266
S         0.13399896976849       5.60639965046920       0.39290590287800
F        -2.77583290099511       7.47412591782165       1.05707589438781
F         0.94422145407737       4.96017174271939       1.70775099191140
O        -3.73348677690811       5.13517860933063       1.64457577237281
O        -1.79634731005956       5.96051609681845       2.91165535907881
O         0.27944321983450       7.10162598659476       0.42299791024461
O         0.72434683899574       5.06636857765703      -0.87838380568324
