66
C18H28F18NP optimized with ADF in AMS.
N        -0.61964723518931      -0.47172733284080      -0.80117287350770
C        -1.09037276517275      -0.07158646651136       0.58902267215379
C        -1.80842271480310      -0.75627022337423      -1.72124052529509
C         0.22997014160651      -1.73961407922819      -0.69363202477254
C         0.18749565475526       0.67348407064907      -1.38023953146210
C        -2.05515178319938      -1.02627617989485       1.26877926006555
C        -2.78771937707186       0.39534161253312      -1.88904729562018
C         1.08183286896883      -2.06354267905502      -1.91201009102844
C         1.45143286642689       1.05288348265611      -0.62253256337262
C        -2.41267408014147      -0.48353056033994       2.65312561824671
C        -3.97026645576271      -0.04853264945194      -2.75394277593639
C         1.81768569800139      -3.38651515480241      -1.69041719744685
C         2.24265603890899       2.07637342239780      -1.43888244177674
H        -1.54338031144566       0.92605877138923       0.48487735146500
H        -0.17875749309858       0.03660671377927       1.19393530441877
H        -2.30962004978353      -1.64790284739361      -1.32438263730244
H        -1.37796570662766      -1.04337703895496      -2.69064163168936
H        -0.47228601563081      -2.55806640131941      -0.48963449249125
H         0.86773866334639      -1.60661622036736       0.19349318459433
H        -0.49089232480916       1.53595455712577      -1.42406407293764
H         0.42587024578284       0.38527621453875      -2.41441195307731
H        -2.97359185011830      -1.14547053775278       0.67508030125130
H        -1.61239186371985      -2.02826085084549       1.36933230021663
H        -3.16585143215520       0.73070075131189      -0.90879165169102
H        -2.29926419112028       1.26134428578380      -2.36592031221080
H         0.45710244059394      -2.15462650302581      -2.81272708143158
H         1.82207968535804      -1.26743385078147      -2.09079275268179
H         1.19918093994961       1.48559433121625       0.35854126139682
H         2.08167345090040       0.16895180314417      -0.43742782410568
H        -3.10656283404584      -1.16896977438017       3.15947041362906
H        -1.51906034011783      -0.37778904660713       3.28842576001021
H        -2.90115239414769       0.50135252152956       2.58492160300744
H        -4.65803635714560       0.79429799208830      -2.91312744336655
H        -3.63321851723956      -0.40834742052258      -3.73671778155503
H        -4.52394536952161      -0.87179984852922      -2.28291044135624
H         2.49036119766848      -3.58750475893688      -2.53617706354303
H         2.42481660215723      -3.35804252015622      -0.77187045962032
H         1.10966597617391      -4.22205041418791      -1.61715610360519
H         3.14611200298948       2.39005195574109      -0.89736650224063
H         2.55713445385307       1.65320235571319      -2.40535950372418
H         1.64142330753843       2.97615558583797      -1.64253313042282
P        -3.83735265259154      -4.85502547517669      -2.41761165719734
F        -5.33251962729359      -4.75593816393874      -1.70804109151222
F        -3.83917334189627      -6.50861449508483      -2.47995011216353
F        -3.74055694735530      -3.16861462012363      -2.38534946498364
C        -4.83817843175995      -4.83630312850484      -4.11153554286301
C        -3.14422166205064      -5.00259158478435      -0.49178137170809
C        -1.93296484960788      -4.79705495074256      -3.14260002179868
C        -5.56455659729809      -3.53227272148735      -4.56457496414511
C        -1.93164786170034      -5.86249243212786       0.01574249221155
C        -1.42906106769749      -4.35983005012587      -4.55718472794858
F        -5.83396005912035      -5.78209217622467      -4.03248160207398
F        -4.04373890430673      -5.20258972192747      -5.17936033472351
F        -4.17619155016818      -5.53067052450035       0.24775140130698
F        -2.90042575812038      -3.72887439541152       0.03529346566884
F        -1.30577201542823      -6.00057323037427      -2.92387165927361
F        -1.30082174425879      -3.86169965867898      -2.31388077766598
F        -6.32438473758807      -3.79934576692628      -5.66476312935820
F        -4.68664356507189      -2.55684486845748      -4.91649855550752
F        -6.38556750654602      -3.04223585781140      -3.60893515831370
F        -1.97423518223518      -5.90103366419094       1.38381930045543
F        -1.98664953682915      -7.12857585391913      -0.43439599770393
F        -0.71472652355750      -5.34003666170576      -0.29862974927745
F        -1.54495104423413      -5.32797820623522      -5.48213368444309
F        -0.08664845322442      -4.06289290203512      -4.47528872312524
F        -2.04836392317185      -3.23458021108028      -4.98779687894047
