42
C10H18F6N2O4S2 optimized with ForceField in AMS.
N         0.01584339353492      -0.02162539080629       0.05200386407993
C         0.93215444164835      -0.86766986641846      -0.77214622149273
C         0.92035528359457       0.82635510581522       0.88838528790480
C         2.33571303067105      -0.30968351505445      -0.64181689735025
C         2.33900626409900       0.31347717429365       0.72558533333556
C        -0.82600083159941      -0.88342357546157       0.94306354828299
C        -0.81259033287263       0.83845801507465      -0.85315846976175
C        -1.82030058857477      -1.79231393177683       0.19863533972171
C        -1.82844144835557       1.73989700680603      -0.12885253284938
H         0.64207861143286      -0.91435104563167      -1.84676420264106
H         0.96966897318040      -1.92103073461747      -0.40998900133838
H         0.64457298606366       0.83256074061269       1.96771909999240
H         0.92339210744998       1.89094445281960       0.55934913055359
H         2.50551269183805       0.47209692341426      -1.41519165797774
H         3.10907113988405      -1.10307239254326      -0.73437953139898
H         2.55080586056073      -0.46270062196272       1.49422301806028
H         3.08855629500815       1.13102542329486       0.80268885753535
H        -0.17132736428809      -1.53277179274943       1.56909286395117
H        -1.40264692583908      -0.26111162796835       1.66233864114378
H        -0.14758689155033       1.49304022519587      -1.46230764018811
H        -1.37188982335282       0.21524022683464      -1.58539119788372
H        -2.26176179851532      -2.51301470877892       0.91862264044570
H        -2.65336096791176      -1.20142972924112      -0.23318046389234
H        -1.32627682132945      -2.36993874156903      -0.60848295544183
H        -2.25916605894046       2.45894274144362      -0.85716167849811
H        -2.66717822640612       1.14310316516880       0.28330058368023
H        -1.35643905309588       2.31935540130162       0.68987996086990
N        -4.57409622881574       2.56658239943231      -4.28584995369303
S        -3.51085585622640       2.03928091066566      -5.41753581193941
S        -5.32760953686045       4.02007697834429      -4.38360422411008
C        -1.86699032454045       2.55342602974321      -4.96472824240465
C        -6.91355584762985       3.80765885799472      -5.16657595983448
O        -3.54999360349126       0.53786410386855      -5.47154405532053
O        -3.85405204580249       2.60142686486644      -6.76923342114230
O        -4.50488202075389       4.99344685391563      -5.18145835221617
O        -5.54212811562411       4.55992258108022      -2.99753153261637
F        -0.95996815031907       2.08473836456813      -5.89582346473914
F        -1.55089850215510       2.04148783271196      -3.72237680726304
F        -1.80421809938246       3.93247523156594      -4.91944087960073
F        -7.54945842671554       5.03051598001980      -5.26696340977460
F        -7.69063932604059       2.94921877626246      -4.41246267748555
F        -6.74153336297669       3.27734297936471      -6.43054121320291
