38
C10H20F3NO3S optimized with DFTB in AMS.
N        -0.66431290986008       0.44424270870995      -0.18484364454027
C        -1.06458476541894      -0.71984246004255      -1.03896755435356
C        -1.95445148545492       0.83107571039590       0.48244464489300
C        -2.07583764767262      -1.50256113879113      -0.20369986132400
C        -2.65957976002400      -0.48504476812847       0.78841624675923
C         0.32727052456876       0.01668378182728       0.86150652137420
C        -0.14696770398734       1.56209547192798      -1.03549522865518
C         1.71935922950957      -0.33580598445719       0.34681557294717
C         0.23322728832493       2.80279639306638      -0.24048610191086
C         2.55676727852118      -0.82494240827983       1.53002597657278
H        -0.18364373546421      -1.29802105179020      -1.31592591375360
H        -1.52955098512059      -0.32029871407048      -1.94363924829600
H        -2.52518940601979       1.43114816218218      -0.23001836029448
H        -1.75113663172091       1.41592321529024       1.37943492736050
H        -1.58717510746915      -2.32301524831977       0.32536041108841
H        -2.84418623343615      -1.92721353924460      -0.85199511543846
H        -3.73703641626222      -0.36952522824854       0.66532005985614
H        -2.46165006211812      -0.78798922168885       1.81829595043951
H        -0.10828208974013      -0.84199762924471       1.37288151717032
H         0.39873610462848       0.82892894433366       1.58328710969122
H         0.71193670820140       1.18056043902262      -1.59284830753287
H        -0.93861717634516       1.80629388769569      -1.74921427108788
H         1.67196839967828      -1.11932459538151      -0.41526415847066
H         2.20320716772263       0.53943503456285      -0.09545630268311
H        -0.60029946491667       3.15778411598511       0.36187624035241
H         1.08185721096595       2.61755818897632       0.41404899801666
H         0.50815191994532       3.58386481783717      -0.94880886200408
H         2.60005934201955      -0.05947870497802       2.30481407084977
H         2.12026171933316      -1.72711055210756       1.95827168729758
H         3.57011593096339      -1.04800610451075       1.19838138233783
S        -1.43040856087115       0.96495286918746       4.09350516583991
O        -0.92250141578353      -0.20941362215235       3.38744830439764
O        -1.68272189576927       0.78318275926492       5.49461433961828
O        -2.44442720386515       1.68841188884159       3.34492541676609
C         0.03274505376642       2.11684312016420       4.00158803761813
F         0.08891977640835       2.64546681945992       2.75590530639665
F         1.18382244513221       1.47150161169056       4.18541209262641
F        -0.02723366666946       3.12220172551450       4.85762100397515
