39
C11H19F3N2O3S optimized with ADF in AMS.
N         1.15865247359408      -1.36835845576184       0.26603178554951
N        -0.71153348223896      -0.52112930425255       0.96254316104017
C         2.59017750578705      -1.71744392443442       0.22528710179828
C         3.24133943392192      -1.28546710573738      -1.08406546297353
C        -1.66337732534751       0.20971957247724       1.81520779767658
C         0.55748511035059      -0.77456593817403       1.30481686251183
C         3.12800482446198       0.21102717942192      -1.36659273309750
C         0.25072688197235      -1.49044670307040      -0.76832355216389
C        -0.92559816999930      -0.95218358164668      -0.33268761254273
C        -2.11562535716069       1.50771232460043       1.15186125514976
C         3.78246462086050       0.59778083369208      -2.68757381071007
C        -0.96344626200229       2.47884818327168       0.91183170889239
H         3.04680392211363      -1.18928169244616       1.07321755754896
H         2.67791627216332      -2.80422912785257       0.38408918393463
H         2.82958654488907      -1.87127105122484      -1.92768076354293
H         4.30544330881304      -1.57440242096139      -1.01387613579404
H        -1.12284949181135       0.42454703252149       2.74989892456192
H        -2.50852190270355      -0.46346176101696       2.02781375649824
H         0.99172900058289      -0.47319801042926       2.26238893591972
H         2.06456926097493       0.50696024738108      -1.37929712391737
H         3.57397318209889       0.77259255397852      -0.53003625008356
H         0.51677194215414      -1.93207708027495      -1.71962915161352
H        -1.87925768946198      -0.83688161326046      -0.83178690082792
H        -2.64170748678656       1.27776432129868       0.20780557807801
H        -2.86927455940122       1.96003576581236       1.81869382612273
H         3.32261288418111       0.06476071584531      -3.53622838778520
H         4.85802091994508       0.35711942405972      -2.68242331902551
H         3.68377945773606       1.67805604339255      -2.87406872486748
H        -0.16504130788838       2.02437139537990       0.30618676487271
H        -0.50518218067053       2.78673130250716       1.86314636038673
H        -1.31680413004247       3.37877236188132       0.38825508277363
S         2.29250865876393       1.64549247552887       2.91370248009949
O         2.40725688562431       1.32478888200731       1.47223102307363
O         1.14829377614598       0.95099744233556       3.56637151191734
O         2.50345199029382       3.03650686688127       3.29728558424590
C         3.75852929017128       0.71324721929311       3.63429262631631
F         4.92002447796546       1.04645849532142       3.01165717176744
F         3.58823170135944      -0.64319214642014       3.46603200585885
F         3.90641170538993       0.94319273117506       4.95943509985047
