37
C9H20F6NP optimized with DFTB in AMS.
N         0.18041951120650       0.27732489905482      -0.22915961289000
C        -0.73334360258447       1.06169976730310      -1.14029132327026
C        -0.49714045967211      -1.01073625440101       0.13375629670513
C        -2.12523637011725       1.28568002541814      -0.56790489629822
C        -1.87030489932189      -0.80003807081196       0.76199474825195
C         0.51056030854715       1.05574771622139       1.02752890140958
C         1.41411858211267      -0.03045737681905      -1.03192280503392
C        -2.78660343966424      -0.03532997936018      -0.19143649633115
C         1.63492242473242       2.07161581895102       0.89899448474999
C         2.41743729820190      -0.93604337398681      -0.33183490326021
H        -0.80675134172677       0.49039460016997      -2.07000649382434
H        -0.25114998907499       2.01572971780645      -1.34434860996485
H         0.15409978217680      -1.55086658125571       0.82365522075776
H        -0.59516466775298      -1.59059070176302      -0.78895462324535
H        -2.70159575527411       1.79892604410218      -1.34107981516639
H        -2.08622858377737       1.94878883427671       0.29774414346469
H        -1.77612049282611      -0.26174032012310       1.70888752300129
H        -2.28575975698396      -1.78799454826951       0.97816585537554
H        -0.40126233442472       1.57671867412133       1.31904181589047
H         0.75690998864661       0.32372673280455       1.80122141459388
H         1.07855728673161      -0.50812283937690      -1.95585927032465
H         1.86932212472887       0.92709850225990      -1.29019747207760
H        -3.74741929622788       0.15216337729910       0.29277794235844
H        -2.96645063336446      -0.63751795536958      -1.08830070147990
H         1.59823891963973       2.70003640642903       1.78856974626555
H         2.61479058360418       1.59911618286366       0.85319753657672
H         1.50232399484098       2.71454042312130       0.03432183801551
H         3.33795828128758      -0.92578467481571      -0.91506536285130
H         2.64750161010580      -0.59429647807841       0.67480137521009
H         2.05942293550499      -1.96346598700297      -0.28134782146827
P        -0.44419312518704       4.75036240222102      -1.02686269983443
F        -0.61959455277270       3.66743404729129       0.26480741631671
F        -1.55566033398110       3.83987908152917      -1.86550784717810
F        -1.63592179228496       5.66719139038547      -0.40754098998553
F        -0.25573852066512       5.73771724008272      -2.30137733706878
F         0.69090634966941       5.54896916644664      -0.16661767864012
F         0.76008961414702       3.73479853067498      -1.63345795184992
