37
C11H18F6NP optimized with ADF in AMS.
N         3.20624830577127       0.08615815095031       0.59215824103943
C        -0.39900294554269      -0.02341616478172      -0.70445606359065
C         0.74394044734181      -0.02075346970995       0.30990898017319
C        -1.76735304064915      -0.13164508967802      -0.03628714823389
C         2.09250676814458       0.08944705569705      -0.38591822845007
C        -2.92563979491602      -0.13306158467124      -1.03156583332777
C        -4.28353223182063      -0.24133431571402      -0.34339871997436
C         3.62384434288695      -1.09233242412103       1.09656321683867
C         3.81364372978844       1.24021675983810       0.92982078947739
C         4.66767045002801      -1.14030457220267       1.99847082785620
C         4.86117774467797       1.24510846624155       1.82951610764542
C         5.29770480640989       0.04141209703792       2.37162943793228
H        -0.26277848412891      -0.86444744074893      -1.40849507401902
H        -0.35616431836758       0.89999203463446      -1.31028398963184
H         0.62068798627149       0.82282374657144       1.01362918832688
H         0.70748075203412      -0.94743540653331       0.91077884335898
H        -1.80653394477280      -1.05680375255263       0.56878903294589
H        -1.89653936500448       0.70914542047388       0.67112565177638
H         2.18683625765871       1.01399741394538      -0.96926948612204
H         2.29452873971888      -0.74203357014864      -1.07606440384461
H        -2.88753937960694       0.79050109421096      -1.63650412233653
H        -2.79812233353486      -0.97340842961618      -1.73745006852966
H        -4.44274924798591       0.60356953267263       0.34603510017918
H        -5.10506808518187      -0.24134056351323      -1.07482008974448
H        -4.35250361129741      -1.17081002103360       0.24450181186899
H         3.11331314292084      -1.97833299225856       0.72866244854126
H         3.45198462205583       2.13641751156345       0.43240567714425
H         5.00127063573117      -2.10790053633859       2.37098989387964
H         5.34746427746215       2.18920991975333       2.07112328789059
H         6.14576794568894       0.02118559407431       3.05732386036365
P         5.57037447844900      -0.43028829617068      -2.10149390390151
F         4.48685363876753       0.83010249057093      -1.81651268600986
F         6.67308597147927       0.64953793165474      -2.64522080486355
F         6.13179858861846      -0.23895485179531      -0.54190469355484
F         6.59819522958666      -1.68317131176704      -2.32846344665244
F         4.41027598680826      -1.50807633255586      -1.50220730663006
F         4.93500729160905      -0.61511236997926      -3.60118815242108
