31
C9H20ClN optimized with ADF in AMS.
N         0.08635966492065       0.17597647395747       0.16199883412522
C        -0.78217912694407       1.26505399016278      -0.46140721755945
C        -0.50620304585668      -1.18104809787024      -0.11490762902736
C         1.45797524630076       0.30421274986898      -0.49011026806495
C        -2.23250442729036       1.17301261312487      -0.02835268231234
C        -1.95771112440631      -1.29435411924573       0.32596521906236
C        -2.82145368158563      -0.20804843287224      -0.31345160913256
C         0.21997281115347       0.43390545302415       1.63774494751137
C         2.49214923162655      -0.71541732976126      -0.04671751340217
C         3.86192069455989      -0.29305869921592      -0.58305857931707
H        -0.69624804954327       1.11535734747299      -1.55046316298802
H        -0.28295775845076       2.21991059927723      -0.17720004212234
H         0.12933814306766      -1.92210222244021       0.38964249587129
H        -0.42147071807983      -1.32986538998580      -1.20457617348853
H         1.77290148936664       1.34573974435024      -0.24175293759412
H         1.27747376715137       0.22711259265823      -1.57506952713748
H        -2.78114184001006       1.95545877723522      -0.57799153665107
H        -2.33360106981196       1.42768142777250       1.03993394935200
H        -2.02379835943619      -1.23807852244968       1.42568825481661
H        -2.31163619771530      -2.29933264318692       0.04256717767618
H        -3.85704617107661      -0.27788712141856       0.05545372862220
H        -2.85469837399587      -0.36945549038032      -1.40710894425577
H         0.80837812592668      -0.37669423266913       2.08198700502959
H         0.71945898108538       1.42510534483639       1.73392144983541
H        -0.77541708474186       0.45525336454041       2.09026631138100
H         2.54912972994493      -0.75648493947413       1.05264584315505
H         2.24471035156194      -1.72951836590686      -0.40671800881812
H         3.84646090576516      -0.19302052545667      -1.67963302545798
H         4.14988350676002       0.68022460256592      -0.15816887863713
H         4.62893795450037      -1.03529724176760      -0.31892327952451
Cl        1.48893834065330       3.35378347125389       0.78263601935271
