31
C11H14F3NO2 optimized with ForceField in AMS.
N         1.10241866578608      -0.00887784872104       0.53915694072667
C        -1.25832171140364      -0.00055339165295      -0.13263289462351
C        -0.27591959077969      -0.02121265386030       1.04243124828138
C        -2.71132220021739      -0.00647418625431       0.35177379878858
C        -3.67967514620382       0.01314599279861      -0.82802080232023
C         1.72821359074763       1.18515438553867       0.30535592390174
C         1.73392278965386      -1.19023528947201       0.26028603781293
C         3.02085952588149       1.21629235223181      -0.22229291990891
C         3.02694128182464      -1.19493897855224      -0.26808698282000
C         3.67020871094102       0.01758545780547      -0.51188581066990
H        -1.07822834875926      -0.89263828528233      -0.77197698028511
H        -1.07610279986570       0.91167525607089      -0.74227592218260
H        -0.44948887360837      -0.92722965405208       1.66547165470371
H        -0.45266281891439       0.85990338532684       1.69941768474148
H        -2.90065485745678      -0.91833809455001       0.95903120380479
H        -2.89851134740098       0.88653163955545       0.98710219529369
H        -4.72467439924432       0.00848369635486      -0.45379863652152
H        -3.52496061480193       0.92827620307930      -1.43886328500783
H        -3.52702137250273      -0.88272476210426      -1.46725462420516
H         1.22404664664146       2.12107987985603       0.51565682990817
H         1.23409798139960      -2.13584867452835       0.43497421794949
H         3.51172564123843       2.16245172803022      -0.41081420623851
H         3.52234228420818      -2.13100518642839      -0.49223904364662
H         4.66733552887946       0.02955858445407      -0.92770839396077
C         8.61579560756142      -0.41258054108261       0.20789580935129
O         9.05969682746566       0.52564003883813       0.85082157759080
O         8.35514090671112      -1.46139823677109       0.77481969643730
C         8.39408259127096      -0.28626554979697      -1.27086031138562
F         9.20353249408055      -1.18646656374463      -1.93773968393826
F         8.69277578566476       0.99473763459273      -1.70150035724234
F         7.07324571540269      -0.56262534627953      -1.56650898083515
