36
C10H16F2N2O4S2 optimized with ADF in AMS.
N         0.43607876697563      -1.18284092499873      -0.28414576394298
C        -1.50449399724357       0.36310289946545      -0.13218104080010
C        -2.85188381513783       0.68259678356976      -0.77898186396628
C        -0.61581534010933      -0.46807834099526      -1.05702868488089
C        -3.81970402167167       1.32074060996130       0.21757002518751
C        -5.18187756724913       1.61381462355545      -0.40466785417202
C         0.38800058570078      -2.52566495164235      -0.16941700790709
C         1.36034177928799      -0.45785617462305       0.39066767061862
C         1.30317910029329      -3.19711497341472       0.62707830891849
C         2.28574347670737      -1.08108688365100       1.19827130557007
C         2.25826899563130      -2.47298092011186       1.32254682415358
H        -1.67490640588961      -0.22543176673076       0.78314923234756
H        -0.99179644853664       1.29691867061355       0.15884281046299
H        -3.29947134206495      -0.25749903680240      -1.14761744791443
H        -2.71461745528849       1.34515230093824      -1.65441858161492
H        -1.20962084563453      -1.24555878723933      -1.55365160298083
H        -0.10665292135619       0.13655052352796      -1.82392651614676
H        -3.37936545386115       2.25223905452012       0.61974509329395
H        -3.94539624752644       0.62853621623196       1.06872278461337
H        -5.09276947763855       2.31572361344184      -1.24983451906204
H        -5.87036437148022       2.05526277032886       0.33129347055019
H        -5.64240164218418       0.68590521581186      -0.77994313847624
H        -0.40527021264679      -3.04543423304340      -0.70215041699135
H         1.31245861002338       0.62089656287283       0.26010058955692
H         1.20076438705815      -4.27867092870841       0.71179729469860
H         3.01735275334169      -0.47598112726549       1.73322098915335
H         2.97341584654986      -2.98193280905523       1.97052013591281
N        -3.03602475982182      -4.47611440560967       1.53387809331575
S        -1.79214750097530      -5.48852890688183       1.37516138598276
S        -2.85153011029677      -2.93064187054598       1.23206573661492
F        -0.80256163879891      -5.07805573532399       2.64365943359666
F        -2.74228466675207      -2.86105363376932      -0.46128143346090
O        -2.24760891993841      -6.82230482232068       1.68041246259035
O        -0.94384009621319      -5.24175750203836       0.21228183959238
O        -1.57271290512771      -2.34158971815988       1.63465402222265
O        -4.07930358062597      -2.21850547200744       1.50946600656338
