22
C8H8F3NO2 optimized with DFTB in AMS.
N        -0.22711604418932       0.78762369731907      -0.05225805609238
C         0.38157863175467       1.55605241850663       0.87614554791793
C         0.44105231905273      -0.20359619441260      -0.69393897690084
C        -1.56602272678244       1.14207249726178      -0.52084641062107
C         1.63375426750794       1.13987669096221       1.37676874078119
C         1.69858773277110      -0.56296392979886      -0.30421351892151
C         2.30260980923018       0.11118700588205       0.77244425112693
H        -0.24228641742308       2.23903523339029       1.43553182206337
H        -0.09119774964144      -0.70261551100047      -1.49472633315830
H        -2.15493652834651       0.23439090268253      -0.64627257057153
H        -2.03973971422612       1.79718444968424       0.20669758978713
H        -1.48234884599602       1.66286512211814      -1.47544654155556
H         2.06962746758619       1.70351356280809       2.19102919268752
H         2.21203947670079      -1.36706712834066      -0.81420886087292
H         3.28007047705730      -0.19827897821270       1.12202912274964
C         0.48449724659591       3.91443158049250      -1.04463843364424
O         0.83667234321863       4.34218990989728      -2.11601169945000
O         1.04155175935568       3.10079728821762      -0.26914996619114
C        -0.94473311659708       4.45320119375368      -0.51645937357958
F        -1.94773129617205       3.95534256108768      -1.27658281885172
F        -1.05504491034475       5.77933414176199      -0.53400505364670
F        -1.21745973211228       4.04895852333952       0.75017855724379
