44
C12H24F3NO3S optimized with ADF in AMS.
N        -0.89852677378081       0.34180005000423       0.45757695813532
C        -1.61071044386856      -0.16445146301204      -0.78609599630871
C        -1.92394867940808       0.07373953023133       1.55342845096787
C         0.34775374731957      -0.45628290341288       0.75791293061223
C        -2.30173966797399      -1.44778392985541      -0.34872056446103
C        -2.64709939493985      -1.21619217610408       1.14412263461269
C        -0.62078414079429       1.82151466733509       0.30394795573252
C         1.49814125010627      -0.27929598467368      -0.21716655879299
C        -0.02812844328313       2.49170922767739       1.52907593824720
C         2.64769158215778      -1.22841223785132       0.13348780368773
C         0.02561686833244       4.00101673624852       1.28579535090869
C         3.84111602148275      -1.06038093389705      -0.80274815227925
H        -2.35875999704810       0.61001738066323      -1.01536950350182
H        -0.88734779686890      -0.26861461694952      -1.60434735284278
H        -1.39482147659119       0.01222612760821       2.51278666422379
H        -2.59259695650266       0.94625780347445       1.56686858988459
H         0.03413734921254      -1.51024541326566       0.80071063834742
H         0.65994792145341      -0.16320901300215       1.77109449040276
H        -3.20164744754039      -1.60974232013083      -0.95925010611886
H        -1.65142775396043      -2.32711772523288      -0.48051419927760
H        -2.33756206864312      -2.07326436066917       1.76009099377216
H        -3.72622754983341      -1.07043609748246       1.28372625915744
H         0.03073876215418       1.93137118082613      -0.57654180970974
H        -1.59944529622413       2.26706781358005       0.07934842461889
H         1.17288548604044      -0.47927791128059      -1.25192027229529
H         1.86921701330415       0.75828018085433      -0.18666672378707
H        -0.67857081602201       2.30251365958529       2.39817508839031
H         0.98045685019864       2.10469381181465       1.75579501019178
H         2.96428498851877      -1.04900138302716       1.17656955107326
H         2.28551269435823      -2.27118331085427       0.09096718878334
H         0.62741065896737       4.24356447008477       0.39508325450869
H        -0.99414824314985       4.38740635291243       1.13930709714175
H         0.46936701781734       4.51927801241935       2.14731108245526
H         4.65186379055724      -1.75555754556453      -0.54134408948689
H         3.55239383723003      -1.25503387922445      -1.84799298484276
H         4.24365952352598      -0.03624643730090      -0.74942285301699
S        -4.29111969818617       2.80478472875520       0.64348572649688
O        -3.94099396669816       1.79569576027044      -0.38893413978672
O        -4.85237186920602       4.06091306939478       0.15430410098864
O        -3.27004852638494       2.91258495950122       1.71452419905934
C        -5.72596894063345       1.97947276084956       1.53650399491533
F        -5.34483154000917       0.76385419107803       2.05565974041370
F        -6.77111104164007       1.75082488673322       0.70195888355904
F        -6.16851490654624       2.73878011358911       2.56885314921988
