31
C9H20ClN optimized with DFTB in AMS.
N        -0.44756824149328       0.34269150438024      -0.24502122622429
C        -1.13137800059353      -0.71708312071621      -1.05356385875570
C        -1.50601560208626       0.76611377785633       0.73309142123356
C        -2.01207230235550      -1.47952135886293      -0.06486626239916
C        -2.22282004927277      -0.52100614585648       1.11896038168324
C         0.71736609077508      -0.23825600475252       0.51093791091891
C        -0.04782782701220       1.48304799119509      -1.13285142699480
C         1.93094822997550      -0.58581631898119      -0.34532333100063
C         0.59942580548461       2.64625258311136      -0.39847391684206
C         2.96211285256603      -1.29966392907512       0.52913084426182
H        -0.38896188692062      -1.34333523173045      -1.54762940810183
H        -1.73931698823671      -0.21781935360703      -1.81175003803774
H        -2.17967105442343       1.45168779418910       0.21373408455541
H        -1.02856252862928       1.27334658233114       1.58079180295106
H        -1.52433904327765      -2.40051507184290       0.26038846557544
H        -2.95825582997984      -1.74702026328646      -0.53912692692781
H        -3.28197302269097      -0.32524326717489       1.29311604197094
H        -1.79985523686270      -0.93902549784161       2.03448045925308
H         0.34751295857105      -1.13550887273378       1.01137803436705
H         0.98988868740762       0.49355185592066       1.28306117939539
H         0.62504476751141       1.07922056071870      -1.89376646174175
H        -0.96061906122993       1.82235424346491      -1.63206034760196
H         1.65406806431567      -1.23364752871458      -1.18372875598277
H         2.38344730835730       0.32166154173590      -0.75305763920405
H        -0.07058297018752       3.06303485677794       0.35000362495222
H         1.51995428278997       2.35204877202257       0.09953907942599
H         0.83182871214812       3.41698590502531      -1.13344715762077
H         3.25219587480107      -0.66427493230055       1.36577782381938
H         2.55285223196786      -2.23065769951504       0.92298469043440
H         3.84940027115110      -1.52964088050346      -0.05996163011465
Cl        0.61582115352978       2.02757329166600       2.77545192145209
