50
C14H30BF4N optimized with ADF in AMS.
N         0.14516881787399       1.72944497082397      -0.21734366696270
C         0.76732192006543       2.79042436120848       0.68015722869017
C        -0.45035641322256       2.56522700804346      -1.32703071234666
C         1.19547583673904       0.77917172222410      -0.74379269230502
C        -0.94339879589557       0.99096441804053       0.54738275887969
C        -0.26402132643828       3.91190547121771       0.71221393822448
C        -1.03940466677181       3.79528236777881      -0.62785588219807
C         1.83659984379855      -0.07716212327594       0.33235508179779
C        -1.65924703245350      -0.10068521419755      -0.22626592433866
C         2.96647469217195      -0.92749351163179      -0.24539001514691
C        -2.62182227390974      -0.82412963923555       0.72282131856416
C         3.63035140520950      -1.79229639159344       0.82585090372194
C        -3.35245206701715      -1.98577686998332       0.05462563886610
C         4.76261341550675      -2.64633245255300       0.26495658259992
C        -4.29493802434870      -2.70732572914952       1.01491033625892
H         1.69067326877446       3.10105465463195       0.16571980110984
H         1.00614324589800       2.36353405213563       1.66378133471747
H        -1.17267641911264       1.96323476516309      -1.89250124624346
H         0.38527046788580       2.83777361965172      -1.98959799779530
H         1.94646089743460       1.41586774971750      -1.24004433181943
H         0.71075592918989       0.16539279976760      -1.51884183744976
H        -1.65076105958500       1.75551504888198       0.89463869675936
H        -0.46933187244588       0.57612381658228       1.44600523260225
H         0.23743652498708       4.88371309496782       0.82123518711655
H        -0.92539728323836       3.78405463580226       1.58121739969901
H        -2.11811151443683       3.67363269401280      -0.45262195626178
H        -0.91110275180523       4.68279691544984      -1.26435856476842
H         1.09051785025723      -0.73453405332063       0.80505805913689
H         2.22412961293609       0.55251617771112       1.14956932163054
H        -0.94209493528065      -0.84065722028456      -0.62098264116696
H        -2.22511224545548       0.30021478628568      -1.08672280285228
H         3.73021070778808      -0.27522607082252      -0.71071374662881
H         2.57679546105873      -1.57877564755183      -1.05158418534244
H        -3.35975569110461      -0.10276531438212       1.11988370149162
H        -2.05141188081933      -1.18905642590037       1.59545597779583
H         2.86649678397543      -2.43766082185247       1.29461958258586
H         4.01017827451249      -1.13974635722257       1.63173490794714
H        -2.60918174386988      -2.70266312732464      -0.34123813549169
H        -3.92262129573920      -1.61395485421089      -0.81696878348096
H         5.22544140422725      -3.26086318412887       1.05138521741048
H         4.39354683705557      -3.32467916613204      -0.52181955794152
H         5.55023559597189      -2.01596043683371      -0.17903161754063
H        -4.80905361811898      -3.54354579981635       0.51727584310118
H        -3.74109600798019      -3.11062060079766       1.87741773969372
H        -5.06248747614745      -2.01949812177617       1.40470423937918
B         0.47420221820779       0.90465964336239       3.79042568336361
F         0.14282752193714      -0.33053939412109       3.12429655460809
F         1.75136273220296       1.34266578772504       3.28795913548530
F         0.50521394070507       0.73572820141707       5.17016182219757
F        -0.50095496867375       1.88752984779576       3.40496936614678
