39
C11H19F3N2O3S optimized with ADF in AMS.
N         0.26812065309596      -0.45291241345631       1.11659339020143
N        -1.80734165749126      -0.34978738743272       0.50827834947318
C         1.56829631183122      -0.04426717620110       1.66574922936171
C         2.47325477863260       0.57845738666610       0.60674146138360
C        -3.15237168168204       0.17611127570680       0.25434961342800
C        -0.79875431430384       0.35327682265990       1.04080171799221
C         1.92302624867907       1.87552839371034       0.01325589904123
C        -0.06649596221616      -1.69991475146620       0.62601000822134
C        -1.37438809413089      -1.63630930679441       0.24272531046878
C        -3.28257936288286       0.77314282211054      -1.14524250053265
C         2.93331766562720       2.55999322734866      -0.90369951308490
C        -2.38344000199653       1.98466946941428      -1.37499878398957
H         1.34779052199592       0.67757161816145       2.46613504029911
H         2.01939212161460      -0.94228862707393       2.11264977480342
H         2.67611127438814      -0.15504232554773      -0.19517717299204
H         3.43957158807907       0.78424668527081       1.10099634754255
H        -3.34883648328133       0.92574980953466       1.03409790470770
H        -3.85333084585852      -0.65873461058511       0.40380304878419
H        -0.79653581158686       1.39113720142923       1.38782626440071
H         1.00477148298514       1.65946862332025      -0.56086556124221
H         1.62790182916558       2.55290709625637       0.83265438909901
H         0.63742941573021      -2.52271989716890       0.62139693932617
H        -2.03683377288138      -2.39027050344602      -0.16356246289708
H        -3.07411773224972      -0.00918090875163      -1.89687180576059
H        -4.34129194999841       1.05778134405084      -1.27242393269225
H         3.21847140299298       1.90622897750942      -1.74396762545426
H         3.85075655928072       2.81697362947758      -0.35091974358416
H         2.52250667466606       3.49137214882255      -1.32072803248513
H        -1.31814695858221       1.71344862038188      -1.32454484992990
H        -2.56849948341658       2.76655712124960      -0.62207061639555
H        -2.56385914840676       2.41842103183957      -2.36984481244514
S        -0.93942039825507       2.16245163816956       3.83694636194951
O        -0.49533043928036       2.57056388597072       5.16501689056778
O        -1.37603690334197       0.75829993927748       3.67131567452632
O        -0.11098450081988       2.64269538420093       2.69344080568653
C        -2.53149323869359       3.11894469493295       3.56735633036925
F        -2.35138185859076       4.45287061581484       3.71089906485218
F        -3.50413989537093       2.72407151900279       4.42480429094967
F        -3.01072114144658       2.91066740313394       2.28679451614986
