59
C17H36BF4N optimized with ADF in AMS.
N        -0.28353726370064       1.63530608190782       0.03652539809529
C        -1.15175352841992       2.37513406627277      -0.95865035567942
C         0.18134378522150       2.63376869528321       1.09571729131885
C        -1.02682633712657       0.49879311502362       0.69925903754512
C         0.94595794200954       1.12584893615961      -0.71834788867699
C        -2.32835220380914       3.08865979228336      -0.31048950908873
C        -0.96055508597659       3.36046910316952       1.77813974033403
C        -1.85278258721501       4.07092749795040       0.76150394781971
C        -1.55330893519525      -0.57627305487619      -0.23595011879945
C         1.83887257420143       0.18512804766877       0.07229062008573
C        -2.17393957357860      -1.72115590706226       0.56968760290778
C         3.23345220459696       0.10964296354548      -0.56129571393441
C        -2.72752292176023      -2.83281112611143      -0.31955400889829
C         4.22909173514426      -0.59821055921887       0.35699781313017
C        -3.35462106748973      -3.97911568640546       0.47229962022505
C         5.64503843770556      -0.62553468503023      -0.21461524387633
C        -3.90546198763574      -5.08332912342143      -0.42679547081320
C         6.64755838876926      -1.28338224377822       0.73166292350630
H        -0.48010325991542       3.10446161517743      -1.43829807335066
H        -1.47059949210882       1.64912969650033      -1.71927124924344
H         0.82242072336557       2.09594905171961       1.80431449838090
H         0.83379610662166       3.34485242499620       0.57118916251265
H        -0.32047546764877       0.07128863329897       1.42541404538545
H        -1.85255970855949       0.94371754763327       1.26767323393061
H         0.57021782331189       0.66173418231745      -1.64364681520124
H         1.51472884697152       2.03388770821772      -0.97077973887836
H        -2.87421300409648       3.61421775723583      -1.11185653418033
H        -3.03679163555949       2.35777067713747       0.11708510595524
H        -1.55520644066378       2.68040810441630       2.41232016177474
H        -0.48052596536696       4.08517925555478       2.45543830261831
H        -2.71407365982542       4.54470930989929       1.25832430558138
H        -1.27103329116715       4.87640234611113       0.27892128480718
H        -2.31934540705930      -0.16371423970474      -0.91500839393538
H        -0.74079837363803      -0.97998284174025      -0.86236374603141
H         1.39746248322687      -0.82499591718650       0.14105716706271
H         1.98341108039668       0.57984054731941       1.08958552028134
H        -2.98437340479678      -1.32628994355876       1.21022298142218
H        -1.41258228744286      -2.14242816419140       1.25152714743555
H         3.58647409762775       1.14158207151374      -0.72538221643796
H         3.18842437113561      -0.39509143492764      -1.54479150853158
H        -3.48313186142118      -2.40966993068496      -1.00808438245924
H        -1.91416830174938      -3.23075351856042      -0.95487912267758
H         4.24148367031712      -0.05798910515647       1.32059047371018
H         3.89217612251886      -1.63266368617963       0.56354314215112
H        -2.59880020023573      -4.40112530326841       1.15924197544176
H        -4.16489704750675      -3.57899120966726       1.10853517613510
H         5.64313755139799      -1.15507623624802      -1.18526130869806
H         5.96069566850123       0.41281677347911      -0.42027069208422
H        -4.35384147374328      -5.89661212475723       0.16267638863783
H        -3.10784182897405      -5.51871337539532      -1.04988410776306
H        -4.68161300238989      -4.68956068182200      -1.10291786110839
H         6.69508208332247      -0.73676996397280       1.68692573004950
H         6.35926084866470      -2.32446305197598       0.95296116927158
H         7.66017397887641      -1.29779439592164       0.30019127723459
B         3.31370918780392       3.50626663561303       1.50330031233041
F         3.03200311401156       3.36529407729641       0.08749844164554
F         2.37393463968151       4.43057008750764       2.04463996083435
F         4.63131807944935       3.92544953073081       1.69360627323883
F         3.09845558842523       2.22259817698305       2.12127132645067
