39
C11H21BF4N2 optimized with DFTB in AMS.
N        -0.53364333518061       0.92501900756873       0.16447840428523
N        -0.86553235729756      -1.09036218079663       0.85030309669864
C         1.05360979797840       2.55958369414271      -0.81668403067223
C         1.97582096183518       1.55464561192808      -1.52890194505935
C        -0.39892749928936       2.08605685584612      -0.70638375069390
C         2.79616541753023       0.70528241015017      -0.55227200046367
C         3.74659732932132      -0.22669251945030      -1.31173631496022
C        -0.81505293100374      -0.31819898960323      -0.23184890820372
C        -0.37324384244661       0.93387860925658       1.52315813221314
C        -0.57828984102834      -0.33929617759455       1.95248418106154
C        -1.07657889721548      -2.53800424141016       0.82191053334571
C         4.63927758110847      -1.01577014444403      -0.35584348449936
C        -1.88901153944284      -3.00533000702661       2.01956256759477
H         1.02826082438984       3.49796650275998      -1.37861499601996
H         1.43653515032299       2.78246486281773       0.18305214090494
H         2.66171612562994       2.11455487877456      -2.17345933796064
H         1.37905513640926       0.90410039479983      -2.17896428641892
H        -1.02004434623700       2.88499747708677      -0.28889174421187
H        -0.79152031836212       1.81181522378443      -1.68945111989353
H         2.13272017676237       0.11313677317149       0.08132782266884
H         3.37688987310666       1.36806602327637       0.09800537008992
H         4.37055199872471       0.36676801042359      -1.99164011183555
H         3.15847205188414      -0.92199621834568      -1.92134847245219
H        -0.98474658429900      -0.63350838164306      -1.24664708478245
H        -0.11130639389628       1.82406981101581       2.06625427163075
H        -0.49035866715038      -0.76819373539408       2.93438915168438
H        -1.58130524036063      -2.77538019692327      -0.11886976554294
H        -0.08487570115420      -3.00213995158496       0.83252881890968
H         4.03498753425615      -1.63743092318545       0.30254087278721
H         5.23541255732387      -0.33685291530158       0.25574409503428
H         5.31425721053051      -1.65737108754408      -0.92363389799684
H        -1.29584953179734      -2.91729623907159       2.92834192395595
H        -2.14834733955040      -4.05347464635304       1.87604250631158
H        -2.80497500088123      -2.42341767914062       2.12425799462004
B         2.02189696872049      -1.85839806483228       2.09662938359523
F         0.96515734708211      -2.47220970823341       2.81676769690512
F         1.99554555174440      -0.47804910347232       2.36958724870633
F         1.73686055801381      -2.02814968500446       0.71082729642635
F         3.23419523961827      -2.41365278124759       2.40897228173773
