46
C12H19F6N3O4S2 optimized with DFTB in AMS.
N         2.24149226673526      -0.57541232892757      -0.07417720955694
N         3.36011744165083       1.20096339134979       0.39515755279399
C         0.15562531623026      -1.86451316341602      -0.31082277071714
C        -0.73029628345936      -0.61939817250331      -0.41715016971843
C         1.56055800512070      -1.60846374397855      -0.85046917716570
C        -2.14125709209142      -0.89555443417462       0.11087138579425
C        -3.02510061238234       0.35173211675951       0.01052038970978
C         2.64219997484969       0.59893640652435      -0.55107499658051
C         2.70743202006335      -0.72541663623966       1.20388448790481
C        -4.43349525253263       0.07934915866038       0.53577554155053
C         3.42435044434825       0.38993905762491       1.49597612794520
C         4.17752406580054       2.38281326788517       0.18367344257542
H         0.21815844583990      -2.18906430245660       0.73215401962708
H        -0.28119301428228      -2.68104984943596      -0.89209721929030
H        -0.78509660793484      -0.30110582371857      -1.46380983387919
H        -0.27835993964899       0.19786212568538       0.15628710476988
H         1.53484866600960      -1.27138954705603      -1.88931124963676
H         2.17752070233490      -2.51061061266146      -0.79147950749545
H        -2.59145310878549      -1.71076943908313      -0.46525093793147
H        -2.08098110124940      -1.21884988828105       1.15572637871734
H        -2.57194602741722       1.16581116647078       0.58680967517936
H        -3.08174119947218       0.67378339068483      -1.03474977575084
H         2.44977170960432       0.98023642230287      -1.53830726706661
H         2.51576438344751      -1.60980313096505       1.78430544471124
H         3.97430996624456       0.66534495821056       2.37835235818585
H        -4.39899547696011      -0.22355560239667       1.58313233594835
H        -5.04301466617252       0.97935237552224       0.45404329934776
H        -4.90858701883056      -0.71592403787525      -0.03997274682448
H         5.15759976746838       2.05154994605449      -0.16741546264365
H         3.70901455069018       3.01407145601508      -0.56923229161023
H         4.27855415317608       2.92547320744190       1.12178941997755
N         4.47890454829462      -2.53619262495553      -1.66475517491949
S         4.90085312674167      -1.04141444644103      -2.03874584119496
S         5.57820877544746      -3.43016895707917      -0.89239094285133
C         6.27725739492832      -1.06714982557502      -3.32363563346251
C         5.14523578081176      -3.21091125461802       0.91606113632816
O         3.76382408795851      -0.48472775702160      -2.75491861942791
O         5.41772748966685      -0.23045687815917      -0.94583330250230
O         6.93885177804418      -2.98552715000194      -1.02565713254446
O         5.25654570908323      -4.80826519863896      -1.12958744828946
F         6.00867192117998      -0.13703495118048      -4.22918581466417
F         6.32814081840882      -2.24231945731361      -3.91918967614792
F         7.43938940465707      -0.79445873844368      -2.76911418675945
F         5.78180230626763      -4.08863019068140       1.66728531866804
F         3.82648053063398      -3.40448538102613       1.06766423203655
F         5.41845321878098      -1.98990398898700       1.36150356036055
