31
C11H17NO2 optimized with ForceField in AMS.
N         1.09214048966534      -0.00568461527040       0.50864490070565
C        -1.27147791655309      -0.00821179285952      -0.17187727122878
C        -0.28965800157976      -0.01505145740286       1.00408204971812
C        -2.72248201939628      -0.00955299055411       0.31981679205255
C        -3.70067859288623      -0.01176148527367      -0.85116627363347
C         1.72626841087692       1.18639315426388       0.28605412468002
C         1.72938795788506      -1.18884050686403       0.25081378179967
C         3.03451791586144       1.21315880097895      -0.20307409343265
C         3.03780267281740      -1.19763828711351      -0.23853181680251
C         3.69167796431310       0.01227629922487      -0.46590620939849
H        -1.09244538992989      -0.90700312855402      -0.80225270005462
H        -1.09152700581002       0.89816671009257      -0.79088521503984
H        -0.46480128223913      -0.91455766269280       1.63621780050210
H        -0.47150417680272       0.87184027670163       1.65203412070886
H        -2.90633247294161      -0.91148133880941       0.94348372680226
H        -2.90753816586842       0.89332275389140       0.94187523493014
H        -4.74153052527937       0.00390420038489      -0.46495755630684
H        -3.54430050119706       0.88552457085692      -1.48728912606248
H        -3.56350708272641      -0.92666487504040      -1.46602932098680
H         1.22019430073377       2.12443567481975       0.48165583628061
H         1.22581056198911      -2.13355606150895       0.41890692939306
H         3.53320561050029       2.15783441032405      -0.37787038455448
H         3.53917767016400      -2.13536747288910      -0.44067715075116
H         4.70491668157613       0.01926840083144      -0.84590561195404
C        -2.22438733158254      -1.83175249051206      -4.52651707720543
C        -2.53259048046458      -3.18803740213879      -3.97519446502680
O        -3.67226307735430      -3.62116546919530      -4.02433634209820
O        -1.64793095828801      -3.86579468917751      -3.47712282412286
H        -2.45998372888204      -1.80842541667106      -5.61145220325273
H        -2.83742792619109      -1.06800768200413      -4.00372951913865
H        -1.14973041841003      -1.58646199233869      -4.38677324982225
