59
C17H34F3NO3S optimized with ADF in AMS.
N        -0.14614641166910       2.01732550568961       0.35899445912184
C        -0.81864437466746       3.03648869838397      -0.53223910979402
C         0.46938585658392       2.89065471932830       1.44195015614905
C        -1.14442089497505       1.04751996740459       0.95297781491798
C         0.94061920924619       1.29989783628672      -0.42666005221261
C         0.15084245003129       4.21604769755826      -0.60057209365634
C         0.98462780664750       4.12576462082317       0.70438756378431
C        -1.86292959623891       0.17861840050489      -0.06138964793752
C         1.63267229417908       0.18712283567077       0.33277591960164
C        -2.80993607096099      -0.77137672311074       0.67740174298118
C         2.77658415455333      -0.40248520329418      -0.49196671115543
C        -3.55184802987327      -1.71655665231533      -0.26375765535714
C         3.48372184064997      -1.52258445489269       0.26929538974642
C        -4.47743337815214      -2.67974742819192       0.47757555199828
C         4.63524841052705      -2.14857767344609      -0.51214228467976
C        -5.21725391369468      -3.63147582376450      -0.45872040118061
C         5.33527991016976      -3.25800733778095       0.26910215094203
H        -1.05364919666400       2.57857097181426      -1.50052997735983
H        -1.75384649679296       3.31331418511428      -0.02407193410495
H        -0.34285327970681       3.12083970868363       2.14488481488993
H         1.22269669950552       2.32062650766800       2.00125941981603
H        -0.60580955633911       0.42916011936112       1.68532443143970
H        -1.85480465874062       1.66564645549007       1.52388384452990
H         0.45941959683402       0.92216133949541      -1.34170349413218
H         1.66266717624330       2.07522190943139      -0.72372130349064
H         0.79355796742668       4.14549149781483      -1.49015264510134
H        -0.40723950555469       5.15910292579402      -0.67871939192430
H         0.86266269018704       5.01540867807046       1.33822394692451
H         2.05730500604500       4.03690845343696       0.48020149340522
H        -2.43786465795754       0.78623754124589      -0.78363902243875
H        -1.14064300235883      -0.42483260036824      -0.63813500188182
H         2.02841433994581       0.54842817386665       1.29603544762227
H         0.92124355947518      -0.61336018864007       0.58822153047172
H        -2.22686647643345      -1.35250222580315       1.41405074579124
H        -3.54076559552307      -0.17983621233627       1.25881777669585
H         3.50771401763396       0.38979056070214      -0.74092309810196
H         2.39268975013662      -0.79290793937189      -1.45427548123711
H        -4.14148498165295      -1.12867982619671      -0.99338110588168
H        -2.81695454525188      -2.29844442946529      -0.85237975463193
H         3.85535109303449      -1.12335665914152       1.23051689715211
H         2.74615409138475      -2.30328484993671       0.53163526607379
H        -5.20616507641772      -2.09593355313905       1.06939839850038
H        -3.88106259324344      -3.25847009817709       1.20576385553325
H         4.25183365652562      -2.55037998495037      -1.46882838894269
H         5.36568569516165      -1.36130596303118      -0.77623810929227
H        -5.84711487606077      -3.07474519663196      -1.17156912794889
H        -5.86836592992579      -4.32153419295956       0.09867436087539
H        -4.50687537189942      -4.23865114193831      -1.04347003824128
H         4.62831889351590      -4.06459440008132       0.52166273390510
H         6.16343852138577      -3.70057840415698      -0.30472255962501
H         5.74596164741124      -2.86975034800918       1.21499730908775
S         0.71280316437182       0.38625769481060       3.96073592895814
O         2.04185178839050       0.93484777279816       3.60959084474933
O         0.32591614249571      -0.82360930057331       3.20303950993980
O        -0.35557054469703       1.39777522752866       4.08665579338767
C         0.92734588233671      -0.24066603801644       5.71703478787987
F         1.27739747792354       0.76907874037871       6.55785757811109
F         1.89298164014063      -1.19554012125448       5.78357757071254
F        -0.23143899154785      -0.78353798278001       6.17774342631478
