61
C17H24F18NP optimized with DFTB in AMS.
N         1.60009910953562      -0.01063627059109       0.13084410894073
C         0.19867244973611      -0.19207095035517       0.62740038124132
C         2.30682301449742       0.56108618337814       1.32502228253884
C         2.21952011399934      -1.33683697774749      -0.21821633867187
C         0.34161586353696      -0.66727396469879       2.07215354685758
C         1.72241868421731      -0.17015074761408       2.52809158576587
C         1.62510573223044       0.95224359854913      -1.01982049868958
C         1.63079006506140      -2.03077580689888      -1.44204437494632
C         3.02986881287707       1.26902507463209      -1.53055083183587
C         2.33604499034461      -3.38247285175728      -1.62375391712230
C         2.95190162313268       2.29730733246382      -2.65695840338140
C         1.79959540292325      -4.12425342395976      -2.84481611917584
H        -0.29519488493501       0.78133237739313       0.58366927810862
H        -0.33563534192772      -0.89260395992956      -0.01314092241996
H         3.37833545599273       0.41796444438824       1.21887060633246
H         2.08226031855488       1.62899409547100       1.36374576370655
H         2.11411199990947      -1.97627089549804       0.65983068631496
H         3.28129552392932      -1.16021465318281      -0.37820368971486
H        -0.46067653756641      -0.25031440546630       2.68307425332556
H         0.28065683905271      -1.75572539749979       2.13007717214408
H         2.36257739467532      -1.00461488520379       2.81894336298108
H         1.64687770403365       0.51015063437931       3.37740007358827
H         1.00853285865666       0.52576087876783      -1.81463993282249
H         1.14324033694353       1.86942341995331      -0.66886307023987
H         0.55488078384841      -2.19315647631536      -1.32565598647873
H         1.78734483306770      -1.42588221952340      -2.33904687202884
H         3.64102539754154       1.66939492777061      -0.71966277778276
H         3.51534079099051       0.36464806574913      -1.90211818201325
H         3.40999155925800      -3.21205793681016      -1.73954839381213
H         2.18716229092540      -3.99260865550870      -0.72739552016213
H         2.37303157906249       1.90928223205388      -3.49595917279407
H         2.48752384090891       3.21978246923089      -2.30648721981220
H         3.95975601175395       2.52361135342155      -3.00175936483921
H         2.30633401301778      -5.08374104862930      -2.94360607759613
H         0.72815975494645      -4.30495777256208      -2.74646862851782
H         1.97248557441873      -3.54402573260819      -3.75197038365774
P         6.60892881463676      -0.52968021402165       0.55734313085553
F         7.09109450984876      -0.54893289778592      -1.03671089888422
F         8.15156368299136      -0.85800454391152       1.07251845200813
F         5.00608123400336      -0.15409993460950       0.03840771759255
C         6.94711400896512       1.39922634239623       0.53424388493938
C         6.19367058980892      -2.47802877364036       0.32215220300573
C         5.91363659790798      -0.57837096931666       2.46292314748811
C         7.16456664286729       2.11493801621059      -0.82515878951956
C         6.62631503773289      -3.57496893275878       1.34480332833312
C         5.62395346066272       0.59533394466437       3.44061173233732
F         7.98949466784154       1.71435277317389       1.31598513012291
F         5.85415367314310       2.00301493981752       1.06639861941148
F         6.71637951889805      -2.87837077395156      -0.84633634654138
F         4.84822940735686      -2.63866959257454       0.20004740658963
F         6.73508714021980      -1.39950565170342       3.14003405992006
F         4.70735696187336      -1.21649132674896       2.37767139965639
F         7.24328064829688       3.43492173629072      -0.63416723764873
F         6.12490510935396       1.89784128335192      -1.63977936134797
F         8.27290972420133       1.72726797535911      -1.43701998902366
F         6.58979903435525      -4.76558301303483       0.73593268122997
F         7.85622381512818      -3.39678090972518       1.80479203650556
F         5.78579454350208      -3.63942663755405       2.37469699311312
F         6.62081059471655       1.45756609597029       3.54466489714413
F         5.37647590281954       0.10529398831467       4.65759013115090
F         4.51902456741711       1.26061861494558       3.06539584913098
