58
C16H22F18NP optimized with ForceField in AMS.
N        -0.09356708379348       0.02524705490618      -0.07989259764757
C        -1.00879095987957       0.54027166236445      -1.15039159544102
C        -0.61734880493303      -1.29239659662046       0.41084231294044
C         1.24223063753264      -0.20235174303210      -0.73254516731970
C        -2.48154385218369       0.64855922365163      -0.72077834288628
C        -2.09113137954159      -1.25529527920012       0.86348787277322
C         0.01235165290391       0.98477227762144       1.07436197974754
C        -2.99478722441345      -0.70217415581621      -0.23355950074832
C         2.38434903217162      -0.65668374680628       0.20967536670293
C         0.62188923055434       2.36042366006443       0.74626326962351
C         3.66063076956382      -0.93434141890325      -0.58103631031633
H        -0.98176319325954      -0.13876645430785      -2.03494501444150
H        -0.67447162981543       1.52730443419751      -1.53242252107884
H        -0.02611008787356      -1.65977263045917       1.27671102012816
H        -0.53366215520330      -2.06671469550329      -0.38638171168061
H         1.57733239290233       0.71726158359383      -1.26280027100191
H         1.14431154474714      -0.97194878794312      -1.53341574080718
H        -3.08922028727429       0.96648003315179      -1.59546072627232
H        -2.61728138731871       1.42272907348851       0.06215904386713
H        -2.20682851922809      -0.65737451941783       1.79139471026501
H        -2.41837946664686      -2.28923623765524       1.10727141262422
H        -0.97865941474820       1.18123062880545       1.52694493805727
H         0.60651523226500       0.53594481320797       1.89972793951619
H        -4.02866948244403      -0.58811044377466       0.15799090357290
H        -3.02611783006576      -1.41798448092525      -1.08472267927520
H         2.61738119363860       0.12984007636593       0.95606949664121
H         2.11340179938423      -1.58783547389036       0.74587260002446
H         0.67371540877739       2.95787588398013       1.68116362404994
H         1.65541491627364       2.27889373957373       0.35647385342129
H        -0.00896916077463       2.92835954005025       0.03454265799646
H         4.47308486010391      -1.23280710039376       0.11489138408819
H         3.49413717337494      -1.76001025503812      -1.30534174545542
H         3.98134065720702      -0.02520617963240      -1.13201872229108
P         6.36685797245994       5.03472713508971      -3.81317480151128
F         6.73933935010601       5.34803436761268      -5.46519333999476
F         6.60633242734940       6.43257664392591      -2.83311746402855
F         5.76048069669388       3.64149558426217      -4.62094553028496
C         4.87212929911222       6.16554717337411      -4.31059552307746
C         8.29521931654274       4.94128192703180      -3.97551778696434
C         6.01215664277474       3.85049188457563      -2.32716428275799
C         3.94324065162682       5.66134300335154      -5.44658091900301
C         9.10419415737147       4.74404632009507      -2.67584693956607
C         4.53921819317797       3.61889282974362      -1.93982919103840
F         5.35893656104820       7.39999000088983      -4.72337783807476
F         4.07769567061286       6.40135338553748      -3.20615255462481
F         8.77213564988407       6.12227867846114      -4.53777622063920
F         8.62686640877932       3.89160150795534      -4.82144944086110
F         6.61836166253639       4.36693278970414      -1.19634723285421
F         6.58136840489651       2.60866438005504      -2.57314653778102
F         2.89296901338945       6.55143433809108      -5.58747439769048
F         3.40653057355647       4.42272553365398      -5.16837518905379
F         4.60564004402663       5.60211093397810      -6.65954450165938
F        10.45103279763032       4.86949202028531      -2.96925156635103
F         8.78882426351365       5.70283309030971      -1.73145356203414
F         8.91698206249996       3.48287297476227      -2.14646783725603
F         3.99026015269994       4.75668124642220      -1.38193244694369
F         4.48475901873228       2.62317427492980      -0.98062744843085
F         3.78063445557542       3.20825216359858      -3.01358074689551
