45
C13H25BF4N2 optimized with DFTB in AMS.
N         1.25036254463665       1.93488834453120      -0.31720335584232
N        -0.87519155436366       2.26472768323433      -0.32659073812245
C         2.60185523351157       1.60243383152904      -0.76512243713337
C        -2.26432764911240       2.32106924178291      -0.77778351719927
C         3.12159167853251       0.35299506118107      -0.05015215514398
C        -2.77804517932117       0.92359854055180      -1.13809052702831
C         2.24977649570711      -0.87144586554122      -0.34097248083584
C        -2.58243331477809      -0.08569063937612      -0.00474466134541
C         0.17660579793755       1.99823173650976      -1.09960761264497
C         0.87671772267227       2.15069062414852       0.98316739967432
C        -0.46635661857879       2.35284058440839       0.97693446241581
C         2.77388277436954      -2.11705172559241       0.37759619325581
C        -2.98215146148485      -1.49234369739554      -0.45925756222308
C         1.87677988350486      -3.32140370466508       0.09648398930571
C        -2.74681083965367      -2.51814582376534       0.64726126525276
H         3.24862215970237       2.46107454409551      -0.55892125633424
H         2.55000174044223       1.43239252535998      -1.84312673781116
H        -2.30886591740782       2.97502498254154      -1.65291426852233
H        -2.85125660126069       2.76465740315280       0.03133688983555
H         3.16932361959706       0.53799473174914       1.02836123965063
H         4.14203758402784       0.17705355189951      -0.40393506952496
H        -3.83971948826500       1.01726011692483      -1.38426408373584
H        -2.24961671985504       0.57541281059413      -2.02749272838963
H         2.22990268983362      -1.04824628619258      -1.41956870417372
H         1.22364843098150      -0.67152940084748      -0.01958006582024
H        -3.17064520765079       0.21349322829305       0.87109719536475
H        -1.52686510002683      -0.09970208784538       0.28391198681348
H         0.15691196692082       1.87129347063110      -2.17059614435812
H         1.58265397264292       2.14712508720534       1.79466442903011
H        -1.15283712286730       2.55468702476492       1.78031317859894
H         2.80989217011829      -1.93176998061181       1.45766956881232
H         3.79398183624894      -2.33378466370472       0.04183944640184
H        -4.03794126358590      -1.50069875294751      -0.75071261677831
H        -2.38493320167065      -1.76085461799131      -1.33544785356567
H         1.84874688123473      -3.53303120206917      -0.97252780440611
H         0.85862598530277      -3.12450179100242       0.43572256437890
H         2.25357299849167      -4.20160645886837       0.61835725252170
H        -3.33294238673411      -2.27165889934967       1.53459355491619
H        -1.69162947029551      -2.54272295969457       0.92438556066094
H        -3.03742744836276      -3.51105874548789       0.30355549287506
B         0.08585420629591      -0.18090537763166      -3.18512326290803
F        -0.03041862175884      -1.28968384211453      -3.96676339855894
F        -0.78107327308874       0.85983433176915      -3.59331161335789
F         1.40256753001102       0.33860298263866      -3.18349909850052
F        -0.24143954290110      -0.46823428710191      -1.82709505430014
