43
C11H17F6N3O4S2 optimized with DFTB in AMS.
N         2.19494440196996      -0.59903075244199      -0.05474162168607
N         0.26595396916472       0.35591171901514       0.05352141830180
C         3.24313607175074      -1.60483326062783       0.12103277352951
C        -1.14424462008989       0.59781492703178       0.33536755049345
C         0.90965229327633      -0.80301791086071       0.21506794624161
C         4.30223799311187      -1.53534310510181      -0.97235042887899
C        -1.34157479375488       0.99833863653311       1.80330162738374
C         2.38534293715514       0.71561481941699      -0.37252297862169
C         1.16993897921848       1.32003687309055      -0.30225303502611
C         3.71669082182996      -1.74714027352377      -2.36659556835886
C        -1.22728525127418      -0.19060945017198       2.75307232856425
H         2.75574206832451      -2.58340465900124       0.14072327290386
H         3.69514823132378      -1.41156081840492       1.09834282556464
H        -1.70185244961477      -0.31283427024766       0.09889919619264
H        -1.47682384570084       1.40139724399839      -0.32653995198887
H         0.46455622417782      -1.74060919498012       0.49904974379362
H         4.81798068756468      -0.57305641179242      -0.92144053929434
H         5.03673945324097      -2.31533781871190      -0.75546012792277
H        -0.60253137136970       1.75972045188134       2.06655016962255
H        -2.33618600041831       1.44425282249360       1.89232197585815
H         3.35672450961715       1.12081627724509      -0.58977615774935
H         0.88048975248198       2.34309298280181      -0.46525821306187
H         2.99613711042912      -0.96329138171533      -2.60508718142658
H         3.21240270804744      -2.71263297925719      -2.42781178456907
H         4.51314620994599      -1.72313716767405      -3.10951446875827
H        -0.24219208511047      -0.64973200557529       2.68134587827641
H        -1.98356129620545      -0.94159920049103       2.52078410123800
H        -1.37310494978483       0.14760170198240       3.77812350650781
N         4.68329093677030       0.60361714255893       4.10899374018093
S         4.23647566652985       1.44739712139337       2.83984038703775
S         4.56903674178625      -0.99728508710363       3.99888458161476
C         2.37921730341219       1.69319147691440       3.00814930592635
C         6.10586266495008      -1.54518256303952       3.05571695426725
O         4.75271042754594       2.78037310525692       2.96598583504491
O         4.36087870556552       0.79092899053009       1.54550534168471
O         3.46226224432450      -1.49648291039683       3.20092576022770
O         4.74243377353707      -1.53257879800014       5.31860259870864
F         1.97835217250487       2.67902029039385       2.20110967299926
F         2.02367033527817       1.99344470760509       4.24352078097010
F         1.71432983415996       0.59587259439563       2.63499073371024
F         6.69100605246570      -2.54616398580534       3.68939198571149
F         6.96621765310600      -0.55048921253523       2.93412087254295
F         5.76941034275632      -1.96441458687858       1.83510421684373
