32
C8H16F3NO3S optimized with ADF in AMS.
N         0.79394787732349      -0.03151692410176       0.39827848388225
C        -0.01398308640351       1.26470168727389       0.40064591732708
C         0.11468041923935      -1.04316007832792      -0.49662512366685
C        -1.45647138224046       1.04366970022607       0.80623378989687
C        -1.32421181281759      -1.30836121858341      -0.08329540079049
C        -2.13814121443619      -0.01328192352519      -0.06190103826090
C         0.96047911363610      -0.56760237408067       1.79294939755189
C         2.15820784643724       0.27577112814111      -0.13667049656786
H         0.05836852620897       1.64482980940961      -0.63177113259142
H         0.51895414775360       1.94109169873204       1.08353718862553
H         0.73062806078357      -1.95520843333495      -0.47675310257050
H         0.15019352473020      -0.61755725608062      -1.51305794201871
H        -1.96174742397236       2.01836321858113       0.71360263022376
H        -1.50242656126826       0.79430429776083       1.87811822317080
H        -1.35147821136503      -1.80024210206578       0.90321105990535
H        -1.74729939201333      -2.02831962986524      -0.80324112236168
H        -3.15649457667550      -0.21459096123031       0.30522882695584
H        -2.23689558210663       0.36515985642350      -1.09661041577189
H        -0.01274987297008      -0.64287491329600       2.28294934931884
H         1.44129555454174      -1.55216094921043       1.71850056701808
H         1.57713186131134       0.15160471796775       2.34589449169484
H         2.05716554728119       0.64177193984180      -1.16627477562587
H         2.60047173903285       1.04518320067124       0.51105649204982
H         2.75696193863357      -0.64419591013898      -0.11842804342156
S         1.24820144051422       2.65176804231349       3.57590975395445
O         2.12537835699443       2.34421943097287       2.40863201391221
O         1.93999368962903       2.87033610052438       4.84277688673861
O         0.02672904981501       1.81962449904624       3.61073800174285
C         0.57124460115665       4.34426620824110       3.12748684735517
F        -0.04890211825581       4.31146622116515       1.89937518334383
F         1.55268163720076       5.27757533474477       3.06059750698407
F        -0.34827410769853       4.76089027060428       4.03359283189560
