51
C13H28F2N2O4S2 optimized with DFTB in AMS.
N        -1.35978627597830       0.21788462170933      -0.35802946314825
C        -2.42837101462804       1.00236969805720      -1.06539969108253
C        -1.49023919006683      -1.23160793734079      -0.74171389905395
C        -0.04043875905441       0.73643916383324      -0.87893845523753
C        -1.45424303290370       0.34755258974802       1.13273359109837
C        -3.83328065267843       0.47564600920251      -0.80453967291015
C        -2.87668672882989      -1.80694111705089      -0.49246073966595
C        -3.93847955837331      -0.98939459635581      -1.22337433267222
C         1.20237414540735       0.14801503219784      -0.21906047303536
C        -1.28020339345988       1.76149138455139       1.66760633242343
C         2.43694559510536       0.62265266856067      -0.99654852888310
C         3.71638552097682       0.01771830521019      -0.41351827662551
C         4.94793729230889       0.47140868874790      -1.20336946568724
C         6.22660226574917      -0.15228714732076      -0.64693785213668
H        -2.20842913229870       0.93008357933115      -2.13257110351340
H        -2.33737962179454       2.04596988704936      -0.75935213318194
H        -0.73600060648230      -1.79278826966944      -0.18903867623367
H        -1.26667847587094      -1.29010264948012      -1.80619947364957
H        -0.05217544145553       1.82289990893472      -0.76248106276270
H        -0.02344788794951       0.50714435651047      -1.94560933832228
H        -2.43123403617681      -0.03443201246565       1.43318401781304
H        -0.68933399378444      -0.30749611642754       1.55565289659548
H        -4.52059595718062       1.08284695168739      -1.39941244545174
H        -4.10913327781573       0.59512752417508       0.24769581323221
H        -3.10204193170120      -1.85914696067798       0.57722481506951
H        -2.86547928596472      -2.82841790084880      -0.88153749923189
H        -4.93378545209951      -1.37283942306370      -0.98747561060476
H        -3.78136221230393      -1.07102279955999      -2.30273959937964
H         1.28147312205085       0.46378684772996       0.82549930225177
H         1.16983130116965      -0.94279930195237      -0.24940484872416
H        -0.30845357798791       2.17759124131906       1.40999579150218
H        -2.05966678610375       2.42941614917306       1.30539174024171
H        -1.35224074802580       1.71292368565662       2.75413841970333
H         2.49338203759444       1.71616245696092      -0.96391076920542
H         2.33520461959205       0.31946147120130      -2.04253913548360
H         3.64554719466264      -1.07460177436061      -0.44418722303917
H         3.82064711847764       0.31744794332274       0.63563857645878
H         4.83024014242610       0.18447977175427      -2.25327932057045
H         5.02621094166959       1.56328640814830      -1.16124188575981
H         6.17819795461075      -1.24032113346728      -0.70749600574138
H         7.08891116744775       0.18935307137275      -1.21987507386945
H         6.36859851574342       0.13113357149768       0.39721069165586
N         0.04871685246588      -1.68389038643296      -4.97223068444539
S        -0.80046042562061      -0.36905809623421      -4.75010471878325
S         0.47364229148309      -2.47912460038313      -3.66634179045294
F         0.25360993495607       0.68460193519667      -4.05452634645810
F        -0.93339639307525      -3.10488404036638      -3.10542241067996
O        -1.09604463743334       0.21079868357221      -6.01259430649971
O        -1.84876085500640      -0.43559653171329      -3.76058000214750
O         0.92196918666771      -1.68278200063339      -2.55366047787132
O         1.23967683383902      -3.61229580660689      -4.04789619504395
