40
C12H25NO2 optimized with DFTB in AMS.
N         0.49982522263536       0.07839897387006      -0.29848713303972
C        -0.86255802966324       0.43543172503419      -0.81691537684740
C         0.67302375808470      -1.41111507365913      -0.37432816087945
C         1.49388970326722       0.72990327287113      -1.23143462087888
C        -1.99553601752169      -0.28913248771631      -0.09603385953195
C        -0.41684816564970      -2.16861891240527       0.36787542433374
C         0.68943569846908       0.53764723120885       1.12196645455407
C        -1.80297127295422      -1.80396448240547      -0.16038230649451
C         2.97679234269081       0.53201222314060      -0.89006437979452
C         0.79556584845196       2.04399933210376       1.29432749270461
C         3.65484792623108      -0.50990412367347      -1.77742208313091
H        -0.87736675579438       0.16868868372394      -1.87762995321309
H        -0.98450034752335       1.51714419597493      -0.72921654106672
H         1.66281384778975      -1.66769146137680       0.05372298534402
H         0.65699652115202      -1.67815071831593      -1.43476615448907
H         1.24645330273489       1.79408248403861      -1.24096131788200
H         1.27915080214240       0.33122894275412      -2.22755644796444
H        -2.92881588489677      -0.00770229995183      -0.59192444044556
H        -2.06304324026307       0.03887212085734       0.94443971612791
H        -0.35853980641008      -1.97416185384358       1.44164063320882
H        -0.22933667141282      -3.23448182396478       0.21589661766235
H        -0.15616604200532       0.16301875221963       1.69913823152096
H         1.60707509916062       0.05379101599528       1.49785697726115
H        -2.57519787180899      -2.29756259397042       0.43458056525911
H        -1.90355919774500      -2.14115266363111      -1.19749748892169
H         3.46998472496717       1.49880389586238      -1.03421943951934
H         3.11220196818959       0.24879817446945       0.15621056795647
H         0.80501669381090       2.24537891251106       2.36555192523042
H         1.72173444048041       2.43145895600850       0.87311170374752
H        -0.04744499466854       2.57769382517278       0.85460355789577
H         4.72797786484494      -0.49420734215703      -1.59018380583421
H         3.29023012974046      -1.50959290341813      -1.54658976044529
H         3.48229206461525      -0.29695830833169      -2.83458542077590
C         4.59267335792515      -2.54286498712700       2.60971092913893
C         3.59240329954112      -1.79798679599611       1.69614103638975
O         3.23511181649008      -0.65860241093358       2.06941714987663
O         3.21184082288466      -2.39661606072290       0.66851651005376
H         5.29076427823332      -1.83433266722420       3.05164073984641
H         4.03000853337699      -3.02601584247484       3.40857501435828
H         5.12915932180729      -3.30065822891701       2.04214462538397
