36
C8H18F2N2O4S2 optimized with DFTB in AMS.
N        -0.26428118854922       0.28538158142301       0.42456706203797
C        -1.43131150342448       0.73932966264272      -0.40432254655173
C        -0.66807132879458      -1.05202432844566       1.00063329716206
C        -2.64664720244914       0.17993803934760       0.31743723762427
C        -2.17473759882543      -1.19790294985909       0.77783553431604
C         0.95475768968485       0.17468990575834      -0.43608395549565
C        -0.03610218811920       1.27683025512152       1.51258373651038
C         2.21360686003380      -0.21713499595438       0.33812310546195
C         3.35356046045098      -0.49985021058262      -0.63908342646840
H        -1.33346761096302       0.30090598533003      -1.40091457412950
H        -1.41560757664978       1.82654694583776      -0.48023831083959
H        -0.40799585525335      -1.06069108441954       2.05872886666510
H        -0.11233937657781      -1.83632936796644       0.48521722403791
H        -3.50563772711067       0.12013403449925      -0.35147120369595
H        -2.90912144630648       0.79964519499235       1.17703476170955
H        -2.67278336770679      -1.49941646774000       1.69924884373962
H        -2.37025869110569      -1.94826620192357       0.00743757042110
H         1.09505251870174       1.14600163260223      -0.91876376338576
H         0.73853464792982      -0.57011663237515      -1.20747727299208
H         0.34182376921637       2.20147354961755       1.08147614640091
H        -0.97771514888824       1.46199482249214       2.02078276243809
H         0.67830395682108       0.87598866967841       2.22511475305698
H         2.50898611688712       0.59242378578607       1.00935741783515
H         2.02257294173641      -1.10731322467349       0.94262482331579
H         4.25229970129937      -0.76397547437820      -0.08338078990705
H         3.09710813236033      -1.32756764452574      -1.30125843120704
H         3.56551312189017       0.38102425373925      -1.24585062527854
N        -1.22773996426253       1.26204771351461       5.49099821077900
S        -1.40074081331686      -0.04493580603542       4.63467587889614
S        -0.74754678272611       2.58096532632975       4.73861967176860
F         0.11252455568655      -0.41209883871685       4.05843895111691
F        -1.88602811952601       2.84335597977735       3.59216420715783
O        -1.71272881439972      -1.13198913658753       5.49560625594728
O        -2.14674867288159       0.08253137476904       3.40588666887487
O         0.45555178067537       2.45164724326029       3.96723836473683
O        -0.87186512573729       3.67547202876443       5.63441572074099
