32
C10H18N2O2 optimized with ADF in AMS.
N        -0.39517338323480       0.12050174523215       0.18381611879041
N         1.72768551618206      -0.29966322872559      -0.07718519889117
C        -1.69778721805939       0.12935886977441       0.85723437754277
C        -2.61549977155327      -1.00620891718056       0.37793518626697
C         0.75197613608870      -0.14814953880293       0.84424213526663
C        -0.16416256673883      -0.00480782574836      -1.17989309562247
C         3.08339949498777      -0.72355093930856       0.26205491217793
C         1.15765481647837      -0.26768733641513      -1.33996060088051
C        -3.62742359808778      -0.56785754643405      -0.68016120437752
C         3.98311217404798       0.44607459375025       0.63784458600043
H        -2.16625509119541       1.11809768986475       0.71263417822441
H        -1.46789576132142       0.00525068052542       1.92383603868675
H        -1.97114913038462      -1.82678479833113       0.01533658414559
H        -3.15844965829256      -1.39836939473602       1.25365531849494
H         0.91750540128882       0.07167127807889       1.88775512498595
H        -0.96099344690999       0.05394175523331      -1.90673155702446
H         2.97824963397573      -1.44771328707418       1.08582038502646
H         3.47565415268887      -1.26949244019986      -0.60814520415125
H         1.73668393193799      -0.47234409371597      -2.23090862121867
H        -3.14129966504740      -0.17132698913875      -1.58517890603645
H        -4.29021419716980       0.22208955497986      -0.28880012146957
H        -4.26054695682552      -1.41154712525708      -0.99371974784236
H         4.05358163564884       1.16948980127650      -0.18813388353624
H         4.99523751052890       0.08423012872059       0.87173841213689
H         3.59804599958903       0.97087574881184       1.52485362974602
C         0.28817977366097      -4.45310610874788       1.67115785912837
C         0.31176496157031      -3.04537905773537       1.06762451303505
O         0.05953602306588      -2.89521282658039      -0.14966267428912
O         0.60392628249992      -2.11596550643858       1.91291442890195
H        -0.39333469021648      -4.47817378671632       2.53469656114780
H        -0.02297427939341      -5.19582558776444       0.92452182439361
H         1.29027193249054      -4.70838643499684       2.04867182204086
