25
C5H12F3NO3S optimized with ADF in AMS.
N        -0.28028577909496      -0.25765827439359       0.04133109529551
C        -0.84329986739068      -1.65380960636250       0.08720746613131
C        -0.10683889361727       0.27209321682930       1.44112782955539
C        -1.25537185523150       0.62577980693768      -0.68492115569679
C         1.03825039553060      -0.27064195788045      -0.66117056947761
H        -0.21535631476911      -2.26436935689789       0.74622958826031
H        -1.85316103280003      -1.58901716074649       0.51106579119003
H        -0.84918761536422      -2.05014044133301      -0.93676191264660
H         0.40562758042373       1.24076333644779       1.37535030012348
H        -1.10590855564159       0.36792975281828       1.88412204653275
H         0.48111187819585      -0.44987316977827       2.01891957590910
H        -0.84679696975940       1.64384062144134      -0.71988583338292
H        -1.39347033312349       0.23517202863507      -1.70110376259662
H        -2.19791563030543       0.59846666757645      -0.11990829883682
H         1.43686452811318       0.75158871547790      -0.69425808700475
H         1.72513753861148      -0.92331171773681      -0.10676882156415
H         0.89749530633734      -0.65293432211150      -1.68031865852014
S        -3.17230861672541      -1.13556690390202       2.90197702769607
O        -3.22969642757947      -0.25435815625652       1.69619795321615
O        -1.86585605393493      -1.81174935849363       3.04841294587610
O        -4.36815014028110      -1.93307421495327       3.15890034972024
C        -3.14557713238241       0.11907027516336       4.30415211804196
F        -4.30395825673080       0.82077443789639       4.37695340392940
F        -2.12737758128542       1.02673469429113       4.12358564945491
F        -2.94138992789496      -0.48384318776875       5.50160312829369
