48
C12H26F2N2O4S2 optimized with DFTB in AMS.
N        -0.71827830020042      -0.42622174847932      -0.11238496482374
C        -0.41568694730589      -0.95884207140224      -1.48565824748888
C        -1.35341424457189      -1.59820203728670       0.57850582152462
C         0.54361370914767      -0.04262455729732       0.60120933663161
C        -1.53543645271495      -1.94398052776525      -1.81650332695638
C        -2.21886827998410      -2.26724199710713      -0.48052422630155
C        -1.67775712570365       0.71994013669077      -0.23360672211106
C         1.26101184584086       1.16852937146164       0.00601771868059
C        -2.06531847907532       1.36725454194571       1.08809652716079
C         2.73773306691686       1.15202119525607       0.43634030607099
C         3.57840361408305       0.22590431840007      -0.44954481188435
C         4.97608495612768       0.01020649108507       0.13815986391917
C         5.78699256545403      -0.95835754686215      -0.72002629945771
H         0.54689096189573      -1.47026683923813      -1.43639493421523
H        -0.34763800776779      -0.13209879542405      -2.19265121442255
H        -1.90875250532170      -1.26004823200414       1.45168758870991
H        -0.55209180491673      -2.26521225125715       0.90051848683010
H         1.18979112518890      -0.91885443857735       0.54650431341943
H         0.29200698704278       0.13141636578034       1.64929263375767
H        -1.10238527971202      -2.84033398087232      -2.26406661502801
H        -2.24482840615555      -1.51118487092241      -2.52473169190171
H        -3.24013269109743      -1.87920797260357      -0.45830251457177
H        -2.25414327145084      -3.34220227928348      -0.30147115106246
H        -1.20972608996264       1.46300711448448      -0.88335642316279
H        -2.56890558041600       0.33702872725939      -0.73592434859284
H         1.20311439224227       1.15165438674714      -1.08589350631269
H         0.78814206477213       2.09152560203233       0.35349755056675
H        -2.78400387020320       2.15716319492375       0.87064732305396
H        -2.53467310585875       0.65786159103274       1.76701112761865
H        -1.20660902508865       1.81523173078369       1.58405654144363
H         2.80452872106366       0.82851353872328       1.47976679662350
H         3.13256849812345       2.17065904642763       0.37663198189650
H         3.65623532307438       0.65728465517208      -1.45381366033458
H         3.08409128156496      -0.74543277871101      -0.54399113682902
H         5.50013939244845       0.96974900756435       0.20887943993034
H         4.87821523112752      -0.39736692741967       1.14905233014982
H         5.90301871594156      -0.57018076313178      -1.73336095086147
H         6.77709339593260      -1.10122097497982      -0.28685364977977
H         5.28773408607280      -1.92633776242553      -0.77371172590455
N         2.16226396199569      -2.86033045446827      -0.00224230409223
S         1.49593125750058      -4.04856664193557      -0.81590975969350
S         2.22862185818459      -2.98164856826875       1.58693496724121
F        -0.03766408118823      -4.13980259917807      -0.22240826654571
F         3.13166434566268      -4.26722346756881       1.89284444490008
O         1.29094961340909      -3.57106554770427      -2.14982647484744
O         2.02478167540811      -5.35103762610198      -0.61049111646567
O         0.96933677587392      -3.24871184047880       2.21707083987453
O         2.98387700589976      -1.86292216121553       2.05716438224381
