47
C15H29ClN2 optimized with ForceField in AMS.
N         3.07636798404768       0.91677329798249      -0.01796330373179
N         2.91776149068663      -1.28825233875491       0.24808098505185
C         1.47295174268563       2.76863289222330      -0.34964968015542
C         2.83938269526153       2.34184533446333       0.20987610229394
C         1.00338032383902      -2.57907992850234       1.13999152281034
C         2.50420892108604      -2.57685064882637       0.80557577159044
C         0.31301920172219       2.09596347354380       0.40040480025922
C         0.14015229641115      -2.31804545607740      -0.10402975749100
C        -1.04742530292498       2.53654164488052      -0.14974736064104
C        -1.35125896590210      -2.27099670849958       0.24577389926951
C         2.82003795044596      -0.08450462759392       0.84721421190819
C         3.35472605677474       0.32711378760356      -1.19827644955789
C         3.26472509621577      -1.04012682032063      -1.03149659702777
C        -2.18747085080317       1.86980151512950       0.63058598258246
C        -2.17943206002222      -1.81990535600129      -0.96459174951854
C        -3.54311069069898       2.16096270656987      -0.00404918635441
C        -3.66200207666264      -1.72483590328318      -0.61833339437037
H         1.38033523449791       3.87237877132725      -0.25241798085495
H         1.42124980490417       2.51514400293020      -1.43110162996998
H         0.79840969499274      -1.80428566341438       1.91097906109172
H         0.73453993499773      -3.56661758968879       1.57465246919431
H         3.64094460410974       2.93119864144165      -0.28590359170083
H         2.88617896682071       2.56687753117355       1.29829957308358
H         3.08723007181189      -2.77911651313603       1.72949821529267
H         2.72081303291208      -3.39481869346888       0.08342475383827
H         0.37635213220158       2.34890493295909       1.48170483550088
H         0.39144963164058       0.99396596804164       0.29047305844509
H         0.31803742344434      -3.12147778585504      -0.85185389750847
H         0.43112578553032      -1.34707296317040      -0.55867602296015
H        -1.14473756509155       3.64160500883314      -0.06937114011472
H        -1.11376648367603       2.25068360346798      -1.22288983336788
H        -1.51247205578767      -1.56108142683116       1.08627627942493
H        -1.68471146478218      -3.28077660845190       0.57109289148355
H         2.47363076083591       0.06365018727502       1.86246000295017
H         3.53889763654072       0.85256560292093      -2.12648704343643
H         3.36427590623570      -1.78982757545087      -1.80569983899126
H        -2.03579587971918       0.77101675931116       0.65231056152459
H        -2.19002387268564       2.23946711703971       1.67918958848512
H        -2.04827305143895      -2.54271472156370      -1.79917169927287
H        -1.83000101045183      -0.82176568952537      -1.30944108157440
H        -3.74199322892025       3.25344603508621      -0.00459275245893
H        -3.57002469259444       1.77899159918659      -1.04699614543965
H        -4.34076772355192       1.65284781652745       0.57797601997863
H        -4.22581931243307      -1.35697354531539      -1.50143521053224
H        -3.81979041349822      -1.01557449591742       0.22155194643395
H        -4.05545483335190      -2.72335655010815      -0.33336941655351
Cl        0.81485476634444      -2.01466752396087      -3.83614385140888
