28
C8H18ClN optimized with DFTB in AMS.
N         0.03574368692470       0.00539979865604       0.17567367920107
C         0.94262905912955      -0.98404824964495      -0.50229040858024
C         0.96799521520506       0.88632055275062       0.97281262221012
C         2.19450753853182      -0.19411370399873      -0.84220912463178
C         2.36122542019891       0.74259768411833       0.35611665522165
C        -0.90910002141380      -0.69722254724028       1.10765950173571
C        -0.67640883512602       0.80875826608441      -0.87169023695114
C        -1.85564928972362      -1.65885465421728       0.40874218201769
C        -1.72808283063882       1.76744432036263      -0.33044729414372
H         0.44213140026285      -1.41617036137909      -1.36844250410642
H         1.18126412772560      -1.75461355759178       0.23685129577493
H         0.97333718353948       0.51609466566691       1.99900008696888
H         0.59944642282682       1.91158262850583       0.95383051054954
H         2.07265609418534       0.36581436017495      -1.77385691001796
H         3.04779614505805      -0.86456290234230      -0.94977974949977
H         3.02503130571631       0.28547750282848       1.09425097610930
H         2.76989953930421       1.70950118874594       0.05860835704346
H        -0.27319540040022      -1.24751261282583       1.81189649604613
H        -1.46362495429830       0.06898022455390       1.65281343759850
H         0.08973939940821       1.36824426401586      -1.41335081171336
H        -1.14348249784673       0.10538107417875      -1.56512223199721
H        -2.45230747306768      -2.14964106481553       1.17716136108474
H        -2.53294107984300      -1.15087656109139      -0.27730708461712
H        -1.30742788823775      -2.42521195374401      -0.13644999602395
H        -2.07443486585181       2.38409220589782      -1.15963944955806
H        -2.58479034031289       1.23448526450623       0.07752552389897
H        -1.32350981998371       2.42425996457844       0.43746135272652
Cl        1.83637924252744      -1.73385058513396       2.45961844675353
