41
C11H24BF4N optimized with ADF in AMS.
N         1.84217269378913       0.43710068871471      -0.04497542358542
C         2.21590628067914      -0.82113292592679       0.70214968442896
C         2.96419233561516       0.56655755206866      -1.05036460632644
C         0.50051397582884       0.31300815174612      -0.75011005180493
C         3.73654224154648      -0.75471521309124       0.86071243388161
C         4.23035463597009       0.15795736848910      -0.29486315474812
C         1.85445957951486       1.62719245810946       0.87448127598366
C        -0.65368492360033      -0.05681032178308       0.16218007739992
C        -1.97868308774577       0.08451397727768      -0.59422049248309
C        -3.18122885079912      -0.14136833208897       0.31994482005451
C        -4.51477959241759       0.05676957847525      -0.39816152974496
C        -5.71561050268591      -0.15576169574583       0.52084738996468
H         1.91065794785042      -1.66271770813617       0.06261542957943
H         1.65381191539403      -0.86049609783657       1.64220887240944
H         2.96464857224297       1.58876765007721      -1.44955760511057
H         2.73639954347438      -0.13913624057111      -1.86200735890313
H         0.65096687001538      -0.44018763793337      -1.53987772904959
H         0.30925448005358       1.30012558526291      -1.19593948032795
H         4.16797632701678      -1.76448074072756       0.80864749148069
H         4.01370364006107      -0.33426099820223       1.83755458688492
H         4.76118285788084       1.03676260909095       0.09694699143127
H         4.92184662340745      -0.36406794334906      -0.97107195884612
H         1.06110583309912       1.52297691300284       1.62202379075262
H         2.83796453162153       1.69478006290087       1.35313459422733
H         1.63739568750104       2.53163097903204       0.29379847105722
H        -0.54495480017555      -1.08666825405429       0.54591289429610
H        -0.69559454874713       0.64532137766914       1.00882585127156
H        -2.01584818249423      -0.61688823422883      -1.44928669203726
H        -2.02862145144075       1.11026426244476      -0.99670668768024
H        -3.11280223910899       0.56840813112076       1.16409582093810
H        -3.14211659553940      -1.16016069335574       0.75139566945952
H        -4.54343507377728       1.07931780755863      -0.81507997517995
H        -4.57507935455061      -0.63524292028590      -1.25845418048569
H        -5.68961468777417       0.55068132528843       1.36563817583720
H        -6.66633004362185      -0.00648052256571      -0.01432094509693
H        -5.71916417411918      -1.17642577359234       0.93718153337497
B        -0.73530910868210       3.67498665744877       0.89141396039877
F        -1.81806543162919       4.55077763188147       0.95260539887905
F        -0.64311127669959       3.08350441688838      -0.42712432323975
F        -0.90382840968824       2.60136673071166       1.84271374356687
F         0.50254436743469       4.32343872861500       1.16055014439172
