56
C16H19F18N2P optimized with ForceField in AMS.
N         0.39531431450755      -1.52386967767403       0.33076972240121
N        -1.74692770011731      -0.93356184680931       0.25176217370662
C         1.77902267916023      -1.64375832079604       0.78643296081372
C         2.70132943093012      -0.69961935586598       0.00431549650042
C        -3.02886109157191      -0.33130967575469       0.61435673623569
C        -0.62411247196898      -0.94659227386800       0.99581310558635
C         2.30642071676353       0.77244001814576       0.19426622841272
C        -0.10131424212541      -1.89896311121320      -0.86552790802240
C        -1.43151417574276      -1.53492139400149      -0.91362048725258
C        -3.33955532958352       0.88394708893612      -0.26897002816350
C         3.28415096404297       1.70569205492879      -0.51255319898091
C        -2.29974764218611       1.99248274169135      -0.10840146877818
H         1.84570329159191      -1.40813211423266       1.87152800632806
H         2.11998705698596      -2.69269699390277       0.64987328810242
H         2.67057416841754      -0.96103383324795      -1.07599528954284
H         3.74131366886826      -0.85192230637832       0.36512179167734
H        -3.01616803256281      -0.01733478616474       1.68157378912617
H        -3.83380175033486      -1.08818712149602       0.49656122204921
H        -0.53954345112942      -0.50848681379201       1.98281521796956
H         1.29072656513629       0.94663757031782      -0.22176984590183
H         2.29016786101060       1.02160840567051       1.27761622709406
H         0.46538725442817      -2.38133205633864      -1.65128500549525
H        -2.11050596359526      -1.67789484542107      -1.74413880146729
H        -3.38715231106944       0.57437583482354      -1.33519507432651
H        -4.33649817489964       1.28545541832363       0.01367268835306
H         3.33891735107322       1.46219440269410      -1.59504961049262
H         4.29461084711599       1.61704547709642      -0.06207258325976
H         2.94035522829105       2.75566020223274      -0.40153040941963
H        -1.30522097227900       1.64822320571497      -0.46307932286189
H        -2.22318353560012       2.30082488867678       0.95591347665141
H        -2.60068603228352       2.87349198260108      -0.71333823403165
P         9.50426940248267      -0.64168867676819       0.62021112725588
F        10.40434555888802       0.80133442633003       0.90537852338730
F         9.77768709931315      -1.14681178454765      -1.00430168633308
F         9.42611776068969      -0.25033137406789       2.29382548362746
C        11.27885525917427      -1.40926366199425       0.64931165131680
C         8.48392348319439       0.75195893626792      -0.25416323362604
C         8.13029655939217      -1.87490515082473       1.15208824776439
C        11.98877605128388      -1.41922154816898       2.02072991357998
C         7.26820963706673       0.31564230251087      -1.11078949145210
C         8.51094729482543      -2.99090571071692       2.14241246516517
F        12.09613194832678      -0.69021003864507      -0.21543907690601
F        11.24856875388526      -2.71252759857869       0.17845494678925
F         9.31550270175016       1.47032437994164      -1.10803810516827
F         8.01030662267039       1.62532037379960       0.71333977168117
F         7.63935181353382      -2.48942340714125       0.01388159358113
F         7.09588902332474      -1.16650717098492       1.74156691293810
F        13.26418062140565      -1.93141741329656       1.86047404029978
F        11.32517617888410      -2.21614439815532       2.92712119674436
F        12.10470726741485      -0.14317941350821       2.54070668981277
F         6.79460666411987       1.41870524907850      -1.79975612846913
F         7.60455014156602      -0.64781274081549      -2.04244707222134
F         6.23348581676886      -0.15130667802166      -0.32953245352518
F         9.55850539082207      -3.75322321503499       1.67324505800901
F         7.42252571927208      -3.83077530733936       2.30088474500727
F         8.82019053917162      -2.47236299211515       3.38628588023015
