40
C12H22F3NO2 optimized with DFTB in AMS.
N        -0.29898539019037       0.35384045529420      -0.20853879186223
C        -1.67121651529187      -0.16671452211251      -0.50048450310713
C        -0.42463841986023       0.88628310927559       1.18984194133084
C        -2.13449031048275      -0.81523837801877       0.79975966583598
C        -1.37019943095763      -0.07316035075650       1.90810836423172
C         0.04476568824161       1.44847870591907      -1.17853243406578
C         0.72078380221141      -0.75052068627361      -0.20478718914225
C         1.37545433427198       2.16752768013157      -0.91264814340163
C         0.87824747655696      -1.51285639516958      -1.51695390499021
C         2.50512751655645       1.72860828009047      -1.84248966233479
C         2.04787796259031      -2.48750591467410      -1.36649644231160
H        -2.30346452704683       0.68789835806895      -0.75342625208056
H        -1.64083526609790      -0.85056130238277      -1.34735317453851
H         0.56848554637679       0.93064239124646       1.64487624663249
H        -0.85072862353854       1.88982558255787       1.12722204136558
H        -3.21486542326588      -0.70918431636408       0.91038028480731
H        -1.89486762432961      -1.88045086957012       0.80737742784614
H        -0.81271351491341      -0.77570857224243       2.53008457433274
H        -2.04938534746948       0.48526997867579       2.55456354631420
H         0.02867892679937       1.00638709094369      -2.17800422999586
H        -0.77776516512184       2.16651446428217      -1.11663334516692
H         1.67469471029939      -0.29140980678275       0.06467610397973
H         0.43857269721848      -1.44193560645620       0.59122541741710
H         1.19307595043331       3.23663123568771      -1.06105962100676
H         1.68875770416369       2.03144564552173       0.12415003463448
H         1.08863483288376      -0.82554031977675      -2.34010182885190
H        -0.03124400424819      -2.06995779864153      -1.76451262015141
H         2.83456634141200       0.71805872992567      -1.60958326553186
H         2.19118342226315       1.77393924237294      -2.88665878256580
H         3.35464487827198       2.39686359137041      -1.70463425334710
H         2.95174924732759      -1.94729765196509      -1.08560630005070
H         1.83026193022194      -3.22583598198521      -0.59413735310500
H         2.22001941043716      -3.00575338841820      -2.30928042275959
C         3.53572522209611       0.38190071442210       1.41588011146782
O         2.54061851895318       0.96310208192834       1.86546507218930
O         3.68298060421714      -0.24092118135673       0.36443081205825
C         4.82333932969108       0.43641891571857       2.36377110146502
F         4.78824943954436      -0.55421611348731       3.27789236674754
F         4.90545802268852       1.59129921110532       3.04358781477482
F         5.96975955308682       0.29894808549563       1.68206789423653
