26
C8H15ClN2 optimized with DFTB in AMS.
H         0.43312209504049      -0.33613071179782      -4.81549956542612
H        -1.06957087364276      -0.98720253324865      -4.11062081502987
H         0.43215692304219      -1.94666922452671      -4.05527584565117
C         0.01344011404236      -0.94070140136841      -4.01043825058487
H         2.22758365882007       0.79344612943323      -0.30447408109583
H         2.48804023473904      -0.44977387367240      -2.82075051769306
H        -1.59784498199073       0.12062194177538      -1.93150753333480
N         0.34808444922700      -0.33852721104031      -2.73247210327339
C        -0.52588468227119       0.12746755894163      -1.83296595643779
N         0.17020115253166       0.60943442662517      -0.80997168699837
C         1.50590077293277       0.44732734311875      -1.04357098442565
C         1.62221111340426      -0.14901750755403      -2.25799461425432
C        -0.38124418330802       1.17005579563853       0.42043561475625
H         0.27326034389158       1.99554430346038       0.71770408111995
H        -1.38970867601542       1.53541441128650       0.21052989987270
C        -0.38065454412271       0.10187698784247       1.51709355334589
H         0.61975124919127      -0.33496815194088       1.57385092854068
H        -1.09323764148533      -0.69063858419302       1.26331098834032
C        -0.72795904463796       0.73728931227132       2.86607142892228
H         0.02891818710680       1.49141821330118       3.10077787373263
H        -1.70162258447234       1.23575862218844       2.80103102782849
C        -0.75966664819187      -0.31228367908057       3.97431736529145
H         0.21400031615053      -0.79400535886255       4.06795914572169
H        -1.50859311460485      -1.07749092582916       3.76160419386729
H        -1.00588939302530       0.16082030934292       4.92488063723343
Cl        2.48987319344846       1.77658095988861       1.56478017473218
