23
C7H8F3NO3S optimized with ADF in AMS.
N        -0.85106168714417       0.11173009900504      -0.06022490650589
C        -0.14023010157127       1.24207576414611      -0.26410810475008
C        -0.24349935329404      -1.02782654651006       0.32977281045316
C        -2.31789940304111       0.19877959167563      -0.04634373565695
C         1.23953751793015       1.22549671267672      -0.19104737058309
C         1.13497515703670      -1.09580105689454       0.41387267818666
C         1.88681111345190       0.04356090724631       0.15178836213187
H        -0.71554904908593       2.13428121112844      -0.49578327434395
H        -0.89451820990402      -1.86824652878685       0.55313866996616
H        -2.73803699638770      -0.81023594549990      -0.10411897787841
H        -2.60280431545424       0.68390020155348       0.89707734172556
H        -2.64689331526429       0.79146826619334      -0.90785663998026
H         1.78832422718933       2.15062237094982      -0.36037230961584
H         1.59932834014134      -2.02908193261352       0.72775405193073
H         2.97353853841618       0.01882585734595       0.24394780630220
S        -0.97367829542483       1.03178091765864       3.26480028659331
O        -0.99017011023592      -0.37203486309691       2.78224055027672
O        -1.85281775204303       1.32752326883686       4.39376090083164
O        -0.97566189563606       2.03286304843524       2.16648857589883
C         0.75100507787975       1.20380769699952       3.98966846910832
F         1.71861575079707       1.06192513486166       3.02477799501100
F         0.98110303026523       0.25600186364553       4.93329700492495
F         0.92441822007893       2.42169550364349       4.55957521707336
