44
C12H24F3NO3S optimized with DFTB in AMS.
N         2.59304841088152       0.18975406210194       0.05967597941108
C         2.63400191766832      -1.17300588182115       0.67141338319356
C         3.80633876944847       0.24720927606361      -0.83058756468134
C         1.35393714490318       0.39172125353094      -0.76225113838912
C         4.11223115034664      -1.44289711348435       0.91563368060967
C         4.83060396566650      -0.71447170635921      -0.22866702555719
C         2.71223784722484       1.23785742992218       1.10945436810944
C         0.06599551582853       0.45377351750827       0.05084378746190
C        -1.12155045857457       0.59415821088929      -0.90972577053470
C        -2.44118868875940       0.70345347620368      -0.14093797323013
C        -3.62642198659046       0.85713626517673      -1.09934448539695
C        -4.94615696848652       0.97032078147919      -0.33829849007045
H         2.22453149089618      -1.87819239382108      -0.05593067321175
H         2.02895607519151      -1.19178058936248       1.57782245414852
H         4.15606100383792       1.27948559254504      -0.86899941712716
H         3.50503135004839      -0.05518521902501      -1.83423134658749
H         1.31273224353942      -0.43354196747703      -1.47796133690777
H         1.49494889266841       1.32182599401075      -1.31598375909337
H         4.31428274075495      -2.51477257000341       0.90877643466580
H         4.42018005021933      -1.04308360015156       1.88440448374711
H         5.70406579709949      -0.17604981822823       0.14268860927117
H         5.16688194997756      -1.42334670251755      -0.98792245751383
H         1.93645595410759       1.09751612548452       1.85846942461878
H         3.69175078111250       1.15889352596410       1.57524472686385
H         2.61466111210162       2.21436340973220       0.63719390665206
H        -0.05303075493931      -0.44803466031632       0.65977507864577
H         0.08195320696711       1.32011520548280       0.71660795679552
H        -1.15501816743644      -0.27169374588063      -1.57956947900907
H        -0.97987651983134       1.48921296152765      -1.52328863126471
H        -2.39944402431898       1.56797625304814       0.53012728587435
H        -2.58062422888444      -0.19179569369293       0.47546016640964
H        -3.48222165118622       1.75202029051255      -1.71341010889747
H        -3.66570338694265      -0.00713197657039      -1.77106070318681
H        -4.93350306883793       1.83894838190963       0.32141126090987
H        -5.77327221167753       1.07915603873145      -1.03998384859764
H        -5.11776009655204       0.07812242160510       0.26579624655938
S         3.14952306812517       3.55087095691622      -2.03094862940833
O         3.75673338819289       4.51279409665854      -2.90536596212986
O         3.80383218833805       3.36220156198138      -0.73883416804053
O         2.75185525188370       2.29054901751076      -2.65058349639404
C         1.51413072282365       4.27975159546916      -1.53347416984215
F         0.67322503329908       4.37989211555900      -2.55392361381705
F         1.63448428584362       5.46859004423740      -0.96389380391286
F         0.94361389032168       3.45323500974910      -0.62706260904570
