40
C12H25NO2 optimized with ForceField in AMS.
N        -0.56169275056737       0.30290508359682       0.15949644569239
C        -1.55118777885932       1.24067544896132      -0.46222508028796
C        -0.89201918511358      -1.11117560140109      -0.19801926627665
C         0.78228075091438       0.66850938888870      -0.40116070771656
C        -3.02454860641809       0.88801503948680      -0.18403108212010
C        -2.34721667992635      -1.50176549589046       0.11260593916942
C        -3.32266891159720      -0.55457037437553      -0.57517350891873
C        -0.54927065899176       0.48765783539510       1.63658243883041
C         1.98236027056716      -0.15144735583801       0.13472148643149
C         3.28897689438755       0.30760674583793      -0.52680422510678
C         4.48611740930268      -0.47716186843168       0.00356305234921
H        -1.42746253678093       1.25385969431097      -1.57033047369167
H        -1.37274099038706       2.28359689367441      -0.11322801139151
H        -0.24302473537907      -1.82336157567074       0.35568811894182
H        -0.71526899405051      -1.28571220550962      -1.28434446030701
H         0.99364817369479       1.74487310949928      -0.19992268817651
H         0.77212230938599       0.55794825983944      -1.51059376467089
H        -3.67454479983084       1.56153992600393      -0.78357786660589
H        -3.28527021511327       1.05950589866216       0.88067037582851
H        -2.52588369794405      -1.50446869610625       1.20883407197092
H        -2.53106240792947      -2.53509830954985      -0.25325125680951
H        -4.36218571809864      -0.81231847191123      -0.27851128405729
H        -3.23958933567362      -0.66835363091722      -1.67868507995243
H        -1.55937955841437       0.40195647032563       2.08149499947375
H         0.06786446683508      -0.28655116734704       2.13986353498865
H        -0.15175941314517       1.49000019446033       1.91187683605981
H         1.84639043506532      -1.23001525458287      -0.08569425226730
H         2.08594895954402      -0.01425953014679       1.23081646543336
H         3.45234485995906       1.38880320189539      -0.32485638046113
H         3.22424711776204       0.16149660647350      -1.62718949247391
H         4.36073539269293      -1.56126045871637      -0.20356185137689
H         4.59441731502227      -0.32238776722636       1.09828889077128
H         5.41241144254260      -0.12531072141332      -0.49775468634824
C         7.74963088169405      -3.00673241672581      -0.74383124835630
C         6.61381105591673      -3.35299015753975      -1.65394753084269
O         5.99111645801476      -4.39075575799748      -1.49418230398594
O         6.30688244748967      -2.59596970475249      -2.56043918277511
H         7.89440463754754      -3.79857827391242       0.02233853056781
H         8.68393166687551      -2.90578160033937      -1.33549899433656
H         7.53621932650654      -2.04538604260997      -0.23076825399530
