37
C9H20F6NP optimized with ForceField in AMS.
N        -0.40025102681278       0.16230236209249      -0.06007858883637
C        -0.96952020846513      -0.89327200849267      -0.95347219601215
C        -1.45773282629356       0.41169123816545       0.96775289884330
C        -2.43541505120253      -1.07150446499951      -0.60664878274193
C        -2.51037361628117      -0.67263973027121       0.83964069067874
C         0.84100585201345      -0.34272967560624       0.61247719580371
C        -0.14976313579492       1.40739498313564      -0.85578561031130
C         2.02453069434423      -0.61153271882648      -0.34840078403985
C         0.47109424929509       2.56492125087233      -0.05267858554772
C         3.17420810467723      -1.30418996524431       0.37687589397239
H        -0.48049701239449      -1.88301746454443      -0.80138012102133
H        -0.86504584516278      -0.65701067212149      -2.03698733100212
H        -1.97763375000902       1.38488062738883       0.80999992368169
H        -1.06388790303957       0.43431161335738       2.00921449423615
H        -2.77498596614805      -2.11956100142631      -0.75813289424322
H        -3.05570771141462      -0.38311915182027      -1.22215517741577
H        -3.52433214745674      -0.30352816200242       1.10853725781939
H        -2.24238086533959      -1.53774438752643       1.48559088509428
H         0.60808646565459      -1.28567504102212       1.16074795280769
H         1.18232600446117       0.37487281146409       1.39162970095095
H         0.51100616921351       1.19679635119944      -1.72510416626689
H        -1.10588517763610       1.77251722935240      -1.29440610074990
H         1.70999488973485      -1.25134269408727      -1.19890130348711
H         2.41224723443297       0.34271721409763      -0.76056069173847
H        -0.09729658737952       2.77109975908589       0.87645215118818
H         1.52755026962852       2.35033604023631       0.20729776364795
H         0.46176158144074       3.48471153889118      -0.67466092274903
H         3.54344354966592      -0.66784395436356       1.20958493134102
H         2.84322248590410      -2.28408695955088       0.78168466173457
H         4.01010168367360      -1.47893655718899      -0.33337547477445
P        -2.13217299042941       4.04567166596570      -4.52655817465308
F        -3.51899133734736       4.89854647769607      -3.97706134320821
F        -2.01799977548899       5.17646330660090      -5.81550087239243
F        -1.15071362149914       5.00133086296734      -3.48897478392910
F        -0.67026667508852       3.27064183942294      -4.99031606334814
F        -2.43104940028359       2.88689993263123      -3.29448583175949
F        -3.01972838007240       3.02619201917135      -5.58743118397194
