43
C13H27NO2 optimized with DFTB in AMS.
N        -1.98945006731077       0.06059036420492      -0.46147368514821
C        -1.97501107063475      -0.76827307328085      -1.70539792338170
C        -3.29503166710252      -0.29685291497201       0.18386797999140
C        -0.87745397455832      -0.33668070833040       0.46963289953978
C        -2.60738167131325      -2.10089620346357      -1.30733122251631
C        -3.47025372496115      -1.78897020579433      -0.07221167801685
C        -1.94759019890316       1.51884461342645      -0.81121688563970
C         0.53142521093984      -0.02168036864755      -0.02083013997569
C        -1.97094173386419       2.43814714897064       0.39937270796034
C         1.50999411342435      -0.33852935765769       1.11808342521847
C         2.94711561207294       0.01465924798927       0.72804719106342
C         3.91599209906037      -0.28378823425451       1.87103118034950
H        -2.58401097762891      -0.25695011654373      -2.45501641859205
H        -0.95522667327265      -0.86255855103282      -2.07726685981773
H        -3.23749847677944      -0.02994501228544       1.24799713783561
H        -4.08066355002466       0.28158825413938      -0.30739633758000
H        -1.04885121845916       0.19507994318631       1.41439338631538
H        -0.97929756502783      -1.40854412754997       0.64797697386881
H        -3.20738596825932      -2.49171928989551      -2.13094787964862
H        -1.83841252062766      -2.83814801566426      -1.06833258482616
H        -3.13646027397049      -2.37246040249643       0.78784826538441
H        -4.52172654482422      -2.02015746555105      -0.25023268781251
H        -2.81820457103074       1.70864109626430      -1.44657794355870
H        -1.04782739312912       1.68272780695338      -1.40946067397249
H         0.62334860251797       1.03734657009830      -0.27473709149854
H         0.78784071624201      -0.60810070767253      -0.91008525735177
H        -2.81686375223179       2.21555228898039       1.04700748238453
H        -1.06162270426990       2.34829546883672       0.99152130689241
H        -2.05836492025810       3.46337449825523       0.04011971874426
H         1.44592016414238      -1.40290838710514       1.36841499025008
H         1.21286168068101       0.23543508744679       2.00181702801830
H         3.24064068070091      -0.55803337657481      -0.15947903739706
H         3.00369461791173       1.07835573074444       0.47282986973360
H         4.93307284533970      -0.02081515464983       1.57895704251354
H         3.64742469781710       0.29299750755242       2.75659069325923
H         3.89047980685159      -1.34406316783741       2.12682470756983
C        -1.79484600582929       1.47473651844887       4.98819337800091
C        -1.69031897042046       1.13018640034181       3.48592527250135
O        -2.72171271875959       0.67778827321081       2.93887840182017
O        -0.58321964795318       1.32171643436905       2.93853974493977
H        -2.83267831672686       1.65034981062148       5.26436540159361
H        -1.41109723530432       0.62978914759753       5.55988536130934
H        -1.18942338706604       2.35156014142139       5.21017555767598
