32
C8H18BF4N optimized with DFTB in AMS.
N         0.99215536818002      -0.05741453102810      -0.07976882844753
C         0.44105874716756       1.27706950409139      -0.49892994867163
C        -0.01226611829675      -1.12990316279345      -0.36261740210505
C        -0.91065885963833       1.58932748578036       0.12704638190676
C        -1.35716217377785      -0.86296701601345       0.30415156609238
C         2.22283948531651      -0.29593546461582      -0.92421686097941
C        -1.92392298688471       0.48087595724900      -0.15242616833501
C         1.35579165614563      -0.03812833915987       1.36464713163766
C         3.11610538466861      -1.42203204765604      -0.43274409074876
H         0.35566723930789       1.25416213889880      -1.58862182293678
H         1.17751126951285       2.03105148197710      -0.21143315897554
H         0.40560063660992      -2.07801860116691      -0.01790553307852
H        -0.14066973880064      -1.17402177745297      -1.44800962174027
H        -1.25928490336243       2.52936900634922      -0.30779795965579
H        -0.80920840441935       1.74359808851751       1.20417925385581
H        -1.25499442802746      -0.88059994601949       1.39234253068631
H        -2.03482959243852      -1.67231410888160       0.01957088124655
H         1.86966115853177      -0.49576061595234      -1.93935375170624
H         2.78867787665341       0.63876497027275      -0.92589815932008
H        -2.85742008672803       0.68644728990098       0.37658732084705
H        -2.14145675502757       0.43972230356348      -1.22485676294343
H         0.51256775495303       0.31778775249794       1.94903135983334
H         1.61850679499339      -1.04539623025621       1.67907582120077
H         2.20034523835596       0.63572860218709       1.49676549504337
H         3.85861175761650      -1.61106139701360      -1.20782525062957
H         3.64434530657076      -1.12167918184314       0.47077714451927
H         2.56625958970645      -2.34466379630096      -0.24898805077693
B         3.53639698679370       2.54983080664391       0.57338512670059
F         4.47378042194716       3.49172331782144       0.86146682366567
F         3.13471403267217       2.59120453824985      -0.78678970960885
F         2.35871532542627       2.71140477308857       1.34932133933553
F         4.01295129987207       1.23188774316457       0.82061541418833
