52
C16H34ClN optimized with ADF in AMS.
N        -0.10689078157946       2.04313476531368       0.11746665510088
C        -0.77829233583555       2.94402303887805      -0.91087195710865
C         0.45733158709506       3.02640155028318       1.11546029742189
C        -1.10732195222854       1.13062478446043       0.78492616289799
C         1.00857141641440       1.26471604535455      -0.56797588393592
C         0.17164207242808       4.12979035016831      -1.05269139173873
C         0.96893026131625       4.20167887309152       0.27873546885460
C        -1.76310134204130       0.12841921982285      -0.14360839597836
C         1.68029275205134       0.21890942848278       0.30043069688503
C        -2.81628496287660      -0.68618896298617       0.60520486705140
C         2.83937142372258      -0.41801327207945      -0.47094268081712
C        -3.50126060683709      -1.70467777361927      -0.30462912341333
C         3.54704837509275      -1.50906377645182       0.32819377814508
C        -4.55926348296573      -2.53576155475069       0.41636803896352
C         4.70332956070287      -2.15368131585719      -0.43330214444554
C        -5.23517211688121      -3.55259795602499      -0.50078026352127
C         5.40636617727501      -3.24427453231655       0.37120915282705
H        -0.92705636102362       2.34809974941564      -1.84672287384058
H        -1.74181495688378       3.23951595759362      -0.46697792912375
H        -0.38170851541831       3.32623774766186       1.76181111161865
H         1.21829368382476       2.52633588115666       1.72820442449065
H        -0.57785044584045       0.63251519663410       1.61291302555031
H        -1.86177459326759       1.80185878420958       1.22898371887877
H         0.55000109149580       0.83716683741417      -1.49452594897073
H         1.73858260285879       2.01985575766247      -0.89626688789340
H         0.84182374488073       3.97734385438007      -1.91223323386031
H        -0.39654586946377       5.05084086134104      -1.24616647005447
H         0.80321905224115       5.14530553955524       0.81901376670303
H         2.05123052233546       4.11992439484425       0.09970251298544
H        -2.20743488031086       0.63681771324880      -1.01552618140779
H        -1.01314489685463      -0.54364099466622      -0.58972322965027
H         2.06912941280271       0.64297485585770       1.24544827477225
H         0.96552225680121      -0.57596366881040       0.57285738116663
H        -2.35201137580253      -1.21428783964402       1.46085868801654
H        -3.58021254151155      -0.01117706305009       1.03684790747517
H         3.56933201884543       0.36386759343488      -0.75037884852679
H         2.45079155943636      -0.83347933832410      -1.41771268503597
H        -3.95924565838840      -1.17521253754144      -1.15990555674582
H        -2.73684539995525      -2.37328901207811      -0.74113997182125
H         3.92694741356314      -1.08573104343194       1.27808814658868
H         2.81558466123105      -2.29054818755501       0.60796152100045
H        -5.32085141926353      -1.86014538781862       0.84842087522582
H        -4.09108154115257      -3.05897633669565       1.27123438923542
H         4.31988999657134      -2.57488727127219      -1.38021670399086
H         5.43097510036019      -1.37105736165101      -0.71662013619815
H        -5.73284325370611      -3.04906118013263      -1.34527773225322
H        -5.99268983270351      -4.14294091429270       0.03679738561153
H        -4.49611521465585      -4.25222610093555      -0.92341501753903
H         4.70385996718834      -4.04950749818406       0.64077926002475
H         6.23301416135602      -3.69581925740255      -0.19789608632916
H         5.82295104528317      -2.83814179304338       1.30761988966940
Cl       -0.68414464932623       0.71364958205037      -3.31678419336047
