24
C6H11BF4N2 optimized with ADF in AMS.
N         0.11672164094752       0.03547313053075       0.02581501410079
N         2.22394782995673      -0.03622279462784      -0.49358436194177
C        -1.23863037362551      -0.42392240744756       0.37028531777931
C         1.10469314191846      -0.76089532152327      -0.39761834617662
C         0.63230232294084       1.29416248325818       0.25110858224081
C         1.95465007155345       1.24902821047963      -0.07473859879917
C        -1.30569109775242      -0.97256791311090       1.78611413761365
C         3.54857276349750      -0.58632617612962      -0.76664895499985
H        -1.90657846565766       0.43833340023420       0.22639563953955
H        -1.51653724319408      -1.18328137879879      -0.37662231020733
H         1.02421879066371      -1.82200877553448      -0.58532750258719
H         0.03087079995639       2.09422535752718       0.66082331656976
H         2.73061868757728       1.99889148875982      -0.00076830530166
H        -0.60739891253827      -1.81190090104400       1.91033306189372
H        -2.33221360951722      -1.30900349820329       1.99566163279687
H        -1.00835043932305      -0.20929686577267       2.51672490406750
H         3.45510098893508      -1.40521334595813      -1.48910763434219
H         4.17467465927208       0.20439381641404      -1.19474795126945
H         3.96468202385072      -0.93593263675446       0.18947699278745
B         2.34546576446295      -0.93532432224640       2.74622718563833
F         3.55257425156962      -0.37942121572378       2.20991567597155
F         1.87106328376924      -1.94289247530146       1.81613112766992
F         1.36845293990267       0.10210811195862       2.82171305316912
F         2.56287590273397      -1.51915375118577       3.99525665868690
