55
C15H25F6N3O4S2 optimized with ForceField in AMS.
N         1.38350145138118       2.24450698640911       0.05164726268024
N        -0.81935642274254       2.43253534854383      -0.19525652962231
C         2.76027342124475       1.82639461803856      -0.20677734544718
C        -2.15900052827702       2.26785005176931      -0.75900157013460
C         3.02343521509685       0.42026097608356       0.35318536226996
C        -2.42886256626050       0.79841445257284      -1.11780828229378
C         2.11660925426392      -0.63607349428807      -0.29751651228098
C        -2.39019617454960      -0.11206855249725       0.11870655810360
C         0.34996061044876       2.16448264855962      -0.80893181528221
C         0.85272627392497       2.58520616843123       1.24316725616678
C        -0.51310021523165       2.70937113690758       1.08835571088851
C         2.45703009795982      -2.04654549942082       0.19380024091762
C        -2.60438926985935      -1.57893694272989      -0.26910072864551
C         1.50475565442851      -3.07676761045060      -0.40843640677264
C        -2.55149871269923      -2.48534194256921       0.95776316607627
H         3.45870118054544       2.55093565675055       0.26503092892031
H         2.96058430327574       1.83292365971418      -1.30081339392074
H        -2.24823477152932       2.89222084373572      -1.67383592502061
H        -2.92623703765205       2.61896033485779      -0.03418928111456
H         2.86295875035116       0.42487468251547       1.45351692200915
H         4.08743473811735       0.16033228227617       0.16198738591892
H        -3.43172520914885       0.72777279610466      -1.59245939658826
H        -1.67701008520729       0.45543377685491      -1.86170193814070
H         2.23250424162871      -0.59424514963634      -1.40302381098984
H         1.05671931231150      -0.41823354301632      -0.04411743387641
H        -3.18337278954147       0.20384278277646       0.83158270575410
H        -1.40474158739482      -0.01783106425622       0.62387008282463
H         0.43836006585894       1.83850504189518      -1.83788762824773
H         1.40844249667059       2.67943236869462       2.16717573752561
H        -1.23347213032143       2.91766338451839       1.86886055334989
H         2.37622274930406      -2.08771478607114       1.30199304434516
H         3.49953397039397      -2.30338747399468      -0.09485671047265
H        -3.59323585249932      -1.69678379572294      -0.76325818721444
H        -1.81328152759288      -1.89578318311268      -0.98337533339885
H         1.58124428870293      -3.07206694986827      -1.51655522244859
H         0.45825155793093      -2.85294172841976      -0.11245890951290
H         1.76418124627504      -4.08989358981070      -0.03859914814025
H        -3.36011767402714      -2.21648760956312       1.67036829068726
H        -1.56862299113537      -2.39083618606632       1.46709569533578
H        -2.68870410205549      -3.54213733344120       0.64601240590650
N         4.37393479243429      -4.34144685914538      -2.16419295842751
S         5.67549801708734      -3.66925672233446      -2.90033271761699
S         4.36562942369478      -5.88828004834781      -1.62068402959959
C         5.57878372778629      -3.95140512730829      -4.65744552732900
C         4.87477158756428      -5.92421939276950       0.08647669022949
O         5.67555400705207      -2.18834261991481      -2.64636471843527
O         6.94817881458494      -4.27010489880257      -2.37176736367219
O         5.30248113127972      -6.73853687559568      -2.43279374327492
O         2.97160749968835      -6.43941492454333      -1.72244142021261
F         6.66034925336520      -3.35852999694978      -5.28099795623673
F         4.40988538487781      -3.40354675392539      -5.15032675502377
F         5.59207523023964      -5.30848816601439      -4.91594524903000
F         4.87238377683440      -7.22935134307170       0.54094832870340
F         4.00096827701652      -5.17403701065259       0.84910693458609
F         6.14809070070457      -5.40194193699853       0.20541935402505
