46
C14H26F3NO2 optimized with ADF in AMS.
N        -1.36205748118645       0.20667362157461      -0.09631505001332
C        -1.47369595164642       1.42513358401065       0.80945377997457
C        -2.53229007786833      -0.72313622167430       0.15389556243009
C        -0.10049704490723      -0.56781030011098       0.25272167284039
C        -2.81452137161076       2.12280057786915       0.66869720858448
C        -3.88586590931038      -0.04579945391192       0.01478479769694
C        -3.98632010987609       1.17762281042116       0.92555605192981
C        -1.30879708654571       0.62826815232121      -1.53669506975273
C         1.20002635989520       0.18514356959227       0.06262175827940
C         2.38715954162103      -0.70100177693974       0.43911760575986
C         3.71260676104747       0.03704407975391       0.25660945807528
C         4.92636130043741      -0.81473248881799       0.61921748758034
C         6.24608552638114      -0.07084810920500       0.42724333493969
H        -0.63351611411081       2.10921500780264       0.55860367195930
H        -1.34403179547954       1.03745025568402       1.83417016093627
H        -2.40169971363730      -1.09856001206108       1.18185045498789
H        -2.42069921374748      -1.56843923218841      -0.54239894388548
H        -0.22767463227804      -0.87721333004001       1.30351400741445
H        -0.13013611125921      -1.47574947107958      -0.37339758643526
H        -2.81289608772208       2.95718520374617       1.38883051391023
H        -2.89564895191710       2.58891469416447      -0.32823701044077
H        -4.06910716141421       0.23710155473217      -1.03522862518829
H        -4.65396656375999      -0.79494183345894       0.27035559051595
H        -3.96587516809928       0.84706620162884       1.98102617786243
H        -4.94791301680204       1.69109314286024       0.76829550551774
H        -0.50424395091881       1.38623558133595      -1.66956228372758
H        -1.11646547228534      -0.26833872047174      -2.14271328877661
H        -2.27435898677536       1.05971881592858      -1.81711113542040
H         1.30736091256904       0.52713824449287      -0.97856958751498
H         1.21084515163583       1.10277276532073       0.67130513325026
H         2.29506735046508      -1.03463165640570       1.49063907567228
H         2.39018969351438      -1.61735883493526      -0.18177415677520
H         3.70350464698566       0.95480518714214       0.87254085623104
H         3.79652159676486       0.37647486867478      -0.79213644023092
H         4.92416853373134      -1.73226886204958       0.00207359210841
H         4.83628655923760      -1.14749641110331       1.67002631013916
H         6.36838835670532       0.24711797423401      -0.62040202945869
H         6.28133975893738       0.83435611679684       1.05399878369249
H         7.10737124847162      -0.70214773756240       0.69333516381594
C         1.08211831699303       3.46891642521292      -1.00360208968724
O         0.86198825276773       2.69345886731135      -1.96867815407966
O         0.74491123577253       3.39182114153234       0.20464877190943
C         1.88904734073378       4.74951563464961      -1.40049313985222
F         2.29182816620796       5.49497759771604      -0.33267966079451
F         1.11760491367310       5.56814578337214      -2.19078406670758
F         3.01532909260949       4.44600845053412      -2.11868567357269
