27
C7H10F2N2O4S2 optimized with ForceField in AMS.
N         0.17412305011776      -0.01922258852401      -0.39947001583047
C         1.60770719676248      -0.00199035832826      -0.71707256489857
C        -0.52257086175898       1.15636762030991      -0.32501163189288
C        -0.45916785204535      -1.21394233809019      -0.18791381956614
C         2.43738550924029      -0.01917395204760       0.56061589758334
C        -1.89208486552738       1.15307808889275      -0.04694013044655
C        -1.82744196476000      -1.25217054632992       0.09328119476229
C        -2.54581028757796      -0.05993579789465       0.16094748635837
H         1.87520302114018      -0.88164789750948      -1.34379420293247
H         1.86894762481994       0.90488822914222      -1.30660834073062
H        -0.02271513087783       2.10494175506124      -0.48018183686741
H         0.09049291468726      -2.14602834836760      -0.24325104878328
H         2.22220708370492       0.88831496825788       1.16191607203015
H         3.51785983885977      -0.03111204570289       0.30581737533965
H         2.20012720693612      -0.92349368056632       1.15937179713896
H        -2.44202748824127       2.08382023271549       0.00324373466434
H        -2.32744556962235      -2.19928990801672       0.24939383925395
H        -3.60797492804498      -0.07639763736698       0.36900735417723
N         0.12132390197245       0.99991102503794       3.26711190989430
S         1.21065615987114       0.24476854252211       4.22628145800358
S         0.01242873562666       2.63202461080286       3.22615191123309
F         0.74483076487316       0.40679254271230       5.82596525619559
F         1.26556996300519       3.24599513816273       2.30202276997751
O         1.27050525498952      -1.21321080103402       3.87024965652156
O         2.56726376487165       0.86769825869623       4.05097315674633
O         0.11479479001004       3.19149295798387       4.61752048691613
O        -1.29804342083244       3.03393204838110       2.61245321555203
