48
C12H26F2N2O4S2 optimized with DFTB in AMS.
N         0.74287317305988      -0.70577331109137       0.26121393304903
C         1.79497218271571      -0.71531274722891      -0.83112566189630
C         1.34441739488965      -1.44786584347425       1.43184795729421
C         0.44825892382474       0.70140030633467       0.68754630868524
C        -0.48699913114791      -1.41384609562167      -0.22977836302136
C         2.99140243269728      -1.48553848308708      -0.28368766938608
C         2.84831994941568      -1.37482497831746       1.22988271900655
C        -0.23710654482287       1.55362133014065      -0.38007657192434
C        -1.59448327849883      -1.55257485533488       0.81056109458912
C        -0.25621129862750       3.02080767893098       0.06659344173366
C        -2.74624652900147      -2.36346742574885       0.20099838319566
C        -0.96392824387667       3.89824965651754      -0.96355106069462
C        -3.86087069148190      -2.58253084600141       1.22013173354871
H         2.06188475023991       0.31648604435752      -1.06322904128731
H         1.38128926834720      -1.18744316009169      -1.72183391547814
H         1.00595947450462      -2.48263094662215       1.38641691969699
H         1.00410892355169      -0.99720229715532       2.36352599374750
H        -0.18435854722546       0.65082669954378       1.57673370924448
H         1.40524862981618       1.14745507558330       0.97232439829371
H        -0.84752223576248      -0.87518260624241      -1.10842892183680
H        -0.16332128726829      -2.40831859107225      -0.54470297447424
H         2.93354571640955      -2.53030066449029      -0.59442176348051
H         3.92726093783405      -1.05891462614983      -0.64578710385844
H         3.24868609949290      -0.42507794160272       1.59601542773043
H         3.34517473512101      -2.19476979105615       1.74880802486472
H         0.28754970187415       1.47272991566289      -1.33553054106853
H        -1.26486920538245       1.21290747265621      -0.52921854895341
H        -1.21673952760073      -2.07905557582394       1.69045638670388
H        -1.96222872218186      -0.57151477015250       1.12638933423677
H         0.77157756526201       3.37277339673304       0.20393237089538
H        -0.77002987204166       3.09965228296407       1.03026110286159
H        -3.14099646024487      -1.83532464374924      -0.67312873529194
H        -2.36176989378931      -3.33177566128311      -0.13278485923840
H        -1.99615840448484       3.57328496267756      -1.09765551805215
H        -0.45398477028388       3.84479411214891      -1.92597174575910
H        -0.96593013975014       4.93472344154897      -0.62737811821581
H        -4.25517176914602      -1.62824840850410       1.57350655753988
H        -3.48634713421229      -3.14366959672947       2.07680578657474
H        -4.67258419586537      -3.14724053917429       0.76247377739663
N        -0.38204774864029      -4.51856828647542      -0.96968358356268
S         0.40691875747145      -4.36000692735306      -2.34161872432911
S         0.39271156718037      -5.01763293485208       0.31844315664072
F         1.11904198074792      -5.77012287829946      -2.62024133469488
F         1.82528204132459      -4.20149145544835       0.32823703543098
O        -0.55348285105730      -4.19126092001346      -3.37848311164605
O         1.49149019476337      -3.41632643010243      -2.27577057833497
O         0.78195193759014      -6.38492789394745       0.32881822262863
O        -0.29085299823964      -4.47792770960309       1.45735191229595
