55
C15H29F2N3O4S2 optimized with DFTB in AMS.
N         3.08852031809849      -0.36043901883475      -0.76117715996278
N         2.46847661828412      -2.39692122464682      -0.45221851414101
C         2.14827926531807       1.89911683418374      -0.87652068025149
C         3.36588740302630       1.04734445837524      -0.50828836425644
C         0.65781600756373      -3.40577675131531       0.86886522697080
C         2.01726150701099      -3.62045538387386       0.20565943484955
C         0.92285926477425       1.55107729501116      -0.02592427864089
C        -0.40201517934777      -2.92656137922855      -0.12887828593725
C        -0.29216611084520       2.39862936266860      -0.41400893214640
C        -1.72632975957163      -2.61240232121467       0.57312669833971
C         2.59597887974905      -1.21098262827861       0.13818499268127
C         3.29164064300896      -1.01880625848746      -1.94246170348605
C         2.89983460952317      -2.30519347478833      -1.74514464619270
C        -1.51484434030904       2.01809704624927       0.42717586301740
C        -2.76082684345343      -2.06765666125276      -0.41693910473131
C        -2.75048105750250       2.81341231619098       0.01100257153713
C        -4.06827630650701      -1.70578610777428       0.28512531507061
H         2.41642318584498       2.94852477057936      -0.72713670347900
H         1.91597341536651       1.75617420394945      -1.93656768440144
H         0.75954394510876      -2.67648383325709       1.67804706172665
H         0.34783871639893      -4.35517461783935       1.31359021662947
H         4.23061756224806       1.33067334034993      -1.11260119692100
H         3.61986310944939       1.15039111835887       0.54974447662209
H         2.77291221040635      -3.89120496139801       0.94874417734532
H         1.97022505300627      -4.40109487895977      -0.55596355741445
H         1.15793618991532       1.70591797464244       1.03237123846555
H         0.67564819234056       0.49200475441522      -0.16168667292722
H        -0.55956649121646      -3.69513857401542      -0.89288433386920
H        -0.04212511768508      -2.02338998108743      -0.63499647132658
H        -0.06091855729886       3.45896581996182      -0.26902901452898
H        -0.51624665864747       2.24684609951573      -1.47550588365764
H        -1.55028433638991      -1.87112654153855       1.36054077980805
H        -2.11367903900048      -3.51939030033587       1.04853707282895
H         2.38075933279755      -0.98293089580950       1.16721016381913
H         3.71201528126584      -0.53196984028686      -2.80451969817208
H         2.92289526917085      -3.15796010577724      -2.40018618176312
H        -1.71564524154185       0.94744594395682       0.30954518201859
H        -1.30016777833373       2.20233410759679       1.48506511120292
H        -2.95593753835603      -2.81848627146691      -1.18988687953961
H        -2.35567074192747      -1.17740012561427      -0.91105823614971
H        -2.57675542727518       3.88292079874921       0.13579877485581
H        -2.99472435632557       2.62073558312456      -1.03456053672830
H        -3.60336508376787       2.52548147650895       0.62577460941351
H        -4.78442459728335      -1.31463975075923      -0.43766103201054
H        -3.89408615316029      -0.94556691860710       1.04794435050598
H        -4.50148796539982      -2.58494022884743       0.76361832089846
N         5.59570885748118      -1.66341240243278       0.06297969248825
S         6.05845703217755      -3.03356030175007      -0.60100027862045
S         5.19669177179215      -1.65870716452344       1.59433546818129
F         4.71846790956881      -3.98903173943098      -0.51086477919597
F         6.55701116721276      -1.88646384602627       2.41618429387070
O         6.18333762698182      -2.78761092980743      -2.00135046396689
O         7.05666486642570      -3.77973555172347       0.08313624769143
O         4.32560670631084      -2.71492709435918       2.03072505106313
O         4.79651706421867      -0.31520208453913       1.90755009341673
