55
C15H20F18NP optimized with ForceField in AMS.
C         2.68074856861327       0.30266452873057       1.54542220898964
C         1.65422733140713       1.26198079787333       0.96321534033792
H         1.29161623817816      -0.88714426960200      -0.87753719485633
H         0.32054328562392      -1.68800135521355       0.40532228751723
H         3.10295053720335      -1.48262773038691       0.37174214966033
H         2.10581237921736      -1.76186257822551       1.85738625706402
H         2.62661913790287       0.31170388773226       2.65654106541343
H         3.70891005444843       0.58198390143168       1.22997451418276
H         1.40911160536579       2.07195226416579       1.68854274962385
H         2.12252561179693       1.75020399546140       0.07565708358278
H        -1.25386909115037      -0.39143506057689       1.55392659282810
C        -0.44245618182925       0.34330400497659       1.74437242860134
H         0.10639993484392      -0.01634106084504       2.64263258279626
H        -0.90624204660124       1.32323074344314       1.99555544499586
C        -0.21737535577313       1.15824270157412      -0.57514190718551
H        -0.34588449280604       2.23670676867371      -0.32288065734541
H         0.43065738733120       1.14224768159998      -1.48103361710365
H        -2.33410044360177       0.70974110143979      -0.11924046220302
H        -2.96361376985373      -2.08571512439503      -2.67502306043243
C        -1.64299413025930      -0.76520888229028      -1.57477460311050
H        -0.81248110908177      -0.88248911449229      -2.30411119575463
H        -1.53362637532405      -1.51894442164167      -0.77118660861781
C        -2.96423153147962      -1.04535014869335      -2.28690062983310
H        -3.09873962767590      -0.34915279939636      -3.14191648754005
N         0.46169399058519       0.47115545015812       0.57135728829541
C         1.02230029326027      -0.85086708450674       0.20278775082671
C         2.29699407672838      -1.06346815228058       1.01263477032039
H        -3.81464952209890      -0.92946958174378      -1.58121411494645
C        -1.62558377077253       0.64603454536494      -0.97099551237964
H        -2.01123527678543       1.35340061674403      -1.73847526572268
P         7.86622847803671       0.19800758171997       1.98738507071810
F         6.77878886701075      -0.59899680915859       3.05925913589948
F         9.47007492099667      -0.42084915230291       2.11007911576810
F         6.31745500642474       0.70959169951392       1.44429750084141
C         7.74353407237367      -1.53670433563693       1.12978390411088
C         8.13147309177810       0.97890120761541       3.74085829693109
C         8.32407241037959       1.66389696932681       0.81591922591575
C         6.34893847054623      -1.96717073585048       0.60813083005342
C         9.26829947958836       2.01334764171355       3.88703702944825
C         8.14751024521036       1.44897765182050      -0.69854105537572
F         8.14531102895315      -2.51340463462980       2.03305961182187
F         8.61691645359069      -1.60053489270646       0.06123274360303
F         8.42036310110794      -0.02699551032531       4.65925067992179
F         6.95982778129744       1.60820207794304       4.13803848544841
F         9.66043727588601       1.97011746149218       0.99683422074613
F         7.58630069532511       2.78640156436460       1.16534491942476
F         6.46000572629086      -3.21132720708386       0.01278988290833
F         5.86536672991770      -1.09153453021307      -0.34017924773958
F         5.42938951851791      -2.07533914299962       1.63536132316297
F         9.41969462444889       2.32045863499429       5.22777828289412
F        10.47318528849849       1.51210469773956       3.43224559633974
F         8.97295002557412       3.19140539757123       3.23113490142255
F         9.01570262841163       0.48521971722800      -1.16847716749477
F         8.45255165093874       2.63143003135985      -1.34953702584289
F         6.85061306058298       1.11641896102465      -1.02497366763207
