38
C10H22BF4N optimized with ADF in AMS.
N        -0.40755731753998      -0.10488336921510       0.32176883210014
C        -1.49636116016454      -0.67882793446599      -0.55770743488658
C        -1.19272712546150       0.39739273081697       1.52389948614506
C        -2.67865033277459       0.28387497463090      -0.42562302873230
C        -2.46927458712718       0.99611332988276       0.93843847120540
C         0.26651089488153       1.05096593739862      -0.40180440696097
C         0.58620616980510      -1.16251258715285       0.75206994793193
C         1.43898036496777       1.67043895804106       0.33743949376264
C         1.35474944159717      -1.80475798559723      -0.38816831070033
C         1.94971516902287       2.89256078910686      -0.42486704765849
C         2.31296110515422      -2.84983680616607       0.18754947462866
H        -1.11744184575279      -0.80223235460524      -1.57999187913298
H        -1.73270724233580      -1.66717560106563      -0.13669209629763
H        -1.38902680141968      -0.48933335038578       2.14229843528333
H        -0.56631949390409       1.06827984405769       2.12731794239316
H        -2.69410463381981       1.00725529406911      -1.25422521323466
H        -3.62369699508806      -0.27634332791040      -0.46548037743263
H        -3.30768424321773       0.82695526186795       1.62892427383825
H        -2.37828011171619       2.08439566900247       0.80570718643069
H         0.57858119447151       0.65877860901547      -1.38254662302822
H        -0.52144536973527       1.79951955940892      -0.57657603464815
H         1.25949959106003      -0.69599304397510       1.48654602888093
H        -0.00534547487330      -1.91132697023208       1.30185189826764
H         1.15519081668984       1.95452028837686       1.36281230223511
H         2.25260929385031       0.93882738395457       0.45175630331908
H         1.93573821918320      -1.04532602932187      -0.93872465771510
H         0.66924464825982      -2.28473970186971      -1.10855545313176
H         2.28672004072088       2.62844635357068      -1.44084822636019
H         1.17213177703305       3.66837605138099      -0.51217717406216
H         2.80325968557877       3.33360997469483       0.10872893605848
H         3.00551334882099      -2.38468487744663       0.90531693365412
H         1.75895089288636      -3.63730907205645       0.72220179135256
H         2.89928430468467      -3.32587364495247      -0.61053006305052
B         1.43812142236087       0.35276627301892       3.89793599402643
F         1.99111754625130       0.42273258626833       5.17287127720348
F         2.45304653648904       0.09459412719730       2.90690105010247
F         0.79588209381699       1.60085525101237       3.54896539075513
F         0.45820573364423      -0.68800463575507       3.80632681965800
