35
C9H17F6N2P optimized with ADF in AMS.
N         0.99397553094107      -1.50316337818088      -1.42181082940712
N        -1.16287060576826      -1.32907217750678      -1.28610093024842
C         2.39161345821489      -1.70976499938482      -1.01639398128976
C         3.09586725905497      -0.39877074888940      -0.67865550538703
C         2.50156367235361       0.32885436372536       0.52653831225572
C        -0.04106053763461      -1.48949657237920      -0.57460914662831
C         0.52119245434652      -1.35092814942255      -2.71012397298575
C        -0.83722425645025      -1.24204883611515      -2.62492283876174
C        -2.51280182753595      -1.31951131210063      -0.70207531741905
C         3.26076266558446       1.60842121030925       0.86944692556961
C        -2.87065131773075       0.04210454953711      -0.12881056856667
H         2.35699557259026      -2.39230515444116      -0.15355476134142
H         2.88466637001587      -2.23479893109806      -1.84784671798446
H         3.09549770429973       0.26530610714784      -1.56289386043143
H         4.15191509247300      -0.65041139071249      -0.47319015892265
H         1.44590551700477       0.58364308159466       0.32230194009597
H         2.49972173676223      -0.35413468459408       1.39515218535120
H         0.01446391753033      -1.67357193104721       0.49336552157211
H         1.18090991528210      -1.36252280082223      -3.56840682873976
H        -3.20175949114595      -1.61787070112945      -1.50517027587981
H        -2.51680303344721      -2.10607681968751       0.06854658817340
H        -1.59292560320008      -1.13638454693506      -3.39287706620813
H         3.24437338449183       2.31866003744113       0.02717239216055
H         4.31411157708512       1.39310347892825       1.10825025674097
H         2.81458910112214       2.11010822467444       1.74208204396645
H        -2.18631599562995       0.31664198313135       0.68774831454260
H        -3.88939091074502       0.00401088388755       0.28553889531276
H        -2.83666254121102       0.82698479458724      -0.89981673469062
P        -0.06831686671860      -4.41913259009540       1.37975644369790
F        -1.21602922352478      -3.18985277597664       1.55524606966291
F        -0.08499340221271      -4.13070861415502      -0.27225295980178
F         1.12159340629720      -3.22074292398033       1.52497622917334
F         1.09619287117389      -5.54583228277956       1.16830106743405
F        -0.04787112886168      -4.62364822912798       2.99978567606249
F        -1.26510818250716      -5.51587702030260       1.20027233142186
