49
C15H28F3NO2 optimized with ForceField in AMS.
N        -1.54377617475243       0.09710002722087      -0.08043237328561
C        -2.55685168104413       0.49197970809949      -1.11318579417620
C        -1.78703520272364      -1.32936293748836       0.31138099200837
C        -0.19810369064618       0.19164379331970      -0.74530463217720
C        -1.62016484472270       0.97321038044058       1.14052732957441
C        -4.01663591410887       0.27876309762429      -0.67882530565804
C        -3.23160412535686      -1.61850152876050       0.76934429571809
C        -4.25047263925965      -1.17431231791026      -0.27693299823372
C         1.02573642772206      -0.12402672096239       0.15131168853190
C        -1.27858843222040       2.45864556049641       0.92074474020557
C         2.32769111722588       0.04082857492139      -0.64438357298143
C         3.55478002145158      -0.29797515281701       0.21085418750819
C         4.84594735737308      -0.09807749583747      -0.59141826885994
C         6.07503883299287      -0.45636488941142       0.23760649811460
H        -2.40843625589670      -0.10741998686480      -2.04207548103392
H        -2.42839501136895       1.54919827792232      -1.42658149608338
H        -1.11734927931860      -1.63216660131618       1.14550837572227
H        -1.56428869757680      -2.01107929297445      -0.54164287671093
H        -0.05621698432550       1.20306584574383      -1.18759668259246
H        -0.15638281038007      -0.50629109895439      -1.61414870504569
H        -2.63008795171559       0.94553536151904       1.59284868678437
H        -0.95335625512863       0.58558233911263       1.94060980132592
H        -4.68310814270203       0.52441601923778      -1.53393877382563
H        -4.29550796567650       0.96259662431375       0.14902654500206
H        -3.44504008059873      -1.12760083772004       1.74177090110521
H        -3.34230760561339      -2.71235266949730       0.93347745508804
H        -5.27720735629789      -1.28353270057415       0.13514519873470
H        -4.17061725017643      -1.82671165707456      -1.17450065322322
H         1.06863335909199       0.56511840077026       1.01917354935197
H         0.97340654450038      -1.16870466457153       0.52176957054379
H        -0.23468451434330       2.59903699704896       0.57655736738680
H        -1.98045570236165       2.94314488215353       0.21411359485323
H        -1.37547745484029       2.99159229646365       1.89033429220053
H         2.40836085863781       1.09246547852309      -0.99929672512909
H         2.30600528092647      -0.62987224000307      -1.53203420018631
H         3.48865970084109      -1.35644057386233       0.54760299836963
H         3.57415105743995       0.35854546057923       1.10902029115433
H         4.82606341990153      -0.73937160326296      -1.49986986489999
H         4.92560683030072       0.96380148434356      -0.91254985087364
H         6.03539000826324      -1.52276686903230       0.54663483199420
H         6.98884060192690      -0.29719560322266      -0.37242291792106
H         6.13351410150790       0.18698884000658       1.14147021360475
C        11.70412329151127      -0.52772668562140      -0.16608144764754
O        12.14179500382791      -0.64787857735976      -1.29945129722346
O        12.23381238565816      -1.13345429067780       0.75180342373393
C        10.51975450218402       0.35192599975609       0.10386333687205
F         9.48030477975958      -0.41587863811315       0.59376922517783
F        10.10650144906995       0.98506614965805      -1.05599846476229
F        10.85795951994158       1.30920113671514       1.04244204296400
