38
C10H20F3NO3S optimized with ForceField in AMS.
N        -0.06712068705585       0.24711941238471       0.15464482011809
C        -1.00226525645834       1.24703157203443      -0.45499802601731
C        -0.52040693666060      -1.14587768247554      -0.15031903272819
C         1.27901555263127       0.49031591206419      -0.46395717611513
C        -2.48815315166112       1.01349706085287      -0.12482253707405
C        -1.99287254145646      -1.41018895091565       0.20695225162357
C        -2.90520772159966      -0.40676790462771      -0.48583328197780
C         0.01806891724762       0.46602524411772       1.62432363821068
C         2.42761770637931      -0.41432274314911       0.04591563679545
C         3.71736877836182      -0.13668916252101      -0.72300130974950
H        -0.91473221046453       1.23104025717169      -1.56654741911472
H        -0.73347661820353       2.27969554387112      -0.13396832008209
H         0.08178377793509      -1.89250489353053       0.41060489151781
H        -0.38667300356621      -1.36632353461889      -1.23444794909688
H         1.58677975133328       1.54905155301234      -0.29563679828463
H         1.21513345379171       0.35949786572595      -1.56934985379399
H        -3.10469312231125       1.72762295399556      -0.71262940798090
H        -2.69854010521026       1.21472586211939       0.94609127575627
H        -2.14302195923534      -1.36644703334829       1.30675363960477
H        -2.26763539718835      -2.43566549845847      -0.12211462459594
H        -3.95655672057506      -0.57867780183443      -0.16998273484054
H        -2.84758261213400      -0.54677975360270      -1.58823938195787
H         0.61139185864547      -0.33037083579672       2.12163173651645
H         0.48534123490346       1.44898824757347       1.85624827589160
H        -0.97668703843879       0.45193496000344       2.11051585120061
H         2.62705151071270      -0.22517703217889       1.12100426543141
H         2.18478230764431      -1.48655308342198      -0.09289818276826
H         3.57379757493131      -0.34000398416468      -1.80563454197167
H         4.02954874642572       0.92054749274740      -0.58686998363603
H         4.52502640150553      -0.79850533779897      -0.34537194465209
S         6.98758029569921       1.11339430645466       1.33745662427865
O         5.59982353665581       0.72825501284500       1.87101889207731
O         6.68530926907460       2.28018307324609       0.38544143446928
O         7.32830570873970      -0.03978791893249       0.38183623916558
C         8.23175656405547       1.45570495753313       2.61192784128698
F         8.41798437688218       0.32737004118261       3.38766114377444
F         7.79813150992688       2.49699864568572       3.41017808763385
F         9.42575902513690       1.80303818625457       2.00921890088482
