34
C8H11F6N3O4S2 optimized with ADF in AMS.
N         0.45233115101762      -0.68530765132254      -0.96447601648802
N         2.44089636424721      -0.45119251820467      -0.12470331751163
C        -0.69531203106834      -1.30136703887286      -1.65447277129168
C         1.53139587488888      -1.34680130801117      -0.52909510544638
C         0.69288116476187       0.66742213513837      -0.86392653930999
C         1.93938232806416       0.81581788450399      -0.33030410341594
C        -1.31961061332391      -2.42409708991174      -0.84593658947034
C         3.79282524592171      -0.76323084916808       0.33144518789052
H        -1.41513868805158      -0.48915686950221      -1.82470361586487
H        -0.31677108461540      -1.64080562787134      -2.63172860855769
H         1.68814208370266      -2.41536988935145      -0.57645798223579
H        -0.02949843731985       1.40329014791245      -1.19330190580100
H         2.51085352248218       1.70396996946818      -0.09188177822529
H        -0.63133066440893      -3.27315062762296      -0.72579813095956
H        -2.20571050533420      -2.79799813372898      -1.37822782466612
H        -1.63131144152191      -2.07069598149023       0.14811932130803
H         3.90993635229279      -1.85006376422734       0.37271156445624
H         4.50756952599171      -0.36986710438563      -0.40204365126439
H         3.95070646830476      -0.31944522298234       1.32238397266741
N         3.09059325339878      -2.86764118677064      -4.62582793958480
S         3.05891169562808      -1.78086385347899      -3.47896374838842
S         4.14388126445945      -4.11752362903765      -4.57606562176957
C         4.27198330890554      -0.41343564828909      -3.95253296295850
C         3.46904672661031      -5.26084580812470      -3.18879890044158
O         1.77494348894164      -1.07311488689240      -3.51814263298049
O         3.56086139308096      -2.22161112048311      -2.16605569534582
O         5.48807415919341      -3.77757528575845      -4.13156635352036
O         3.92416817738393      -4.88189430634522      -5.79083075075278
F         4.18784561853332       0.58345488229048      -3.01028021350714
F         3.96178991667252       0.11927213500083      -5.15295732244706
F         5.54356766035870      -0.85075100151058      -3.97796826458767
F         3.61621637150062      -6.55064498886203      -3.56862937617710
F         2.14588470104305      -5.03814040704979      -2.94880746783074
F         4.14152051525828      -5.08699469075809      -2.02639023422149
