32
C8H18BF4N optimized with ForceField in AMS.
N        -0.36651623554424       0.37829077667450       0.04846637210971
C        -1.42130860591851       0.62627874263647      -0.97306156885993
C        -0.83062072749778      -0.80932417163407       0.82503832705098
C        -2.68585383076537      -0.06289578851007      -0.50498795335477
C        -2.18048181304734      -1.24942590428682       0.27292657083567
C         0.93184040491644       0.11269704294135      -0.64410826134237
C        -0.26231951413583       1.56935089125962       0.93197979331629
C         2.14830858775667      -0.02902976909348       0.29935864415950
C         3.35677696190187      -0.58406019805265      -0.44964801940402
H        -1.15231748506622       0.18758191429340      -1.96278841333070
H        -1.61170396997552       1.71016126918586      -1.15146679340775
H        -0.95035286360684      -0.58237198251267       1.91011343432839
H        -0.12826786781257      -1.67029792600877       0.76297318950383
H        -3.32507149129791      -0.37560525158944      -1.35961730490806
H        -3.26118608504148       0.61316116814048       0.16501313038036
H        -2.88668148071408      -1.53476953824081       1.08230575394043
H        -2.04060380716155      -2.11296233051235      -0.41535526959450
H         1.15354546704873       0.93700795333117      -1.36089298114390
H         0.84336529814850      -0.81908619204315      -1.25111655059717
H         0.15170094398344       2.44105808490723       0.37789037849728
H        -1.26047314563697       1.85759915749076       1.33364375044443
H         0.39238682457164       1.36979032554533       1.80738351930911
H         2.42537208262314       0.96641537166681       0.70760882697958
H         1.91948709606951      -0.70397844815729       1.15019338416065
H         4.22813103991541      -0.64231288221965       0.23637218734349
H         3.13776309193332      -1.60411737431939      -0.83154447520144
H         3.61792417355553       0.07712014163253      -1.30382435493653
B         3.61087706478023       1.55922110114718       4.05059381351536
F         4.24071354954076       0.77473709616102       5.05311420176900
F         3.16273061117376       2.78172046345565       4.61806080281600
F         2.50132749210754       0.84805891866172       3.52297420425265
F         4.53839829239574       1.83184504074954       3.00993511756842
