51
C13H28F2N2O4S2 optimized with ForceField in AMS.
N        -1.53942637506828       0.12055474891148      -0.05684329762774
C        -2.56011342224705       0.52446656107441      -1.07889696620448
C        -1.77962161413458      -1.30851356697318       0.32882869173012
C        -0.19964328289146       0.21664323215251      -0.73184678298760
C        -1.60421268808188       0.98976820155690       1.16972377068088
C        -4.01664185737120       0.29593235159529      -0.64081058112154
C        -3.22046232871705      -1.59888392749012       0.79385191056882
C        -4.23622061645454      -1.16310637008186      -0.25623677023267
C         1.02906137139522      -0.10379186629610       0.15460942127677
C        -1.25488610556965       2.47456077071750       0.95731010185504
C         2.32499020676220       0.04091858106387      -0.65420549936218
C         3.55273543926264      -0.30012639193739       0.19944986958741
C         4.84665258942018      -0.11913516533046      -0.60273581502381
C         6.06991637014289      -0.47644603108151       0.23628285434361
H        -2.41373332448370      -0.05899769531058      -2.01735478848113
H        -2.44018832790364       1.58674440149694      -1.37691620933491
H        -1.10645427196635      -1.61602679324361       1.15789694010777
H        -1.56269575373491      -1.98592169817258      -0.52936369877029
H        -0.06074808910113       1.22847490032225      -1.17410131312773
H        -0.16456852124268      -0.48095417440944      -1.59915517531996
H        -2.61237866595129       0.96742323712651       1.62683188838663
H        -0.93559697631021       0.59274238774018       1.96399769875664
H        -4.69200368612921       0.54573583252634      -1.48764479826972
H        -4.29372865533139       0.96592529599161       0.19867732079771
H        -3.43336285459813      -1.09946390861418       1.76206195561652
H        -3.33206313925100      -2.69135542457718       0.96556513221565
H        -5.26461909561820      -1.29135068293257       0.14495598911005
H        -4.13464221594738      -1.80593039573301      -1.15861011216093
H         1.08443956962314       0.59128873976137       1.01687061006265
H         0.97048360070115      -1.14436918285053       0.53478602042083
H        -0.21564391356744       2.61131983208282       0.59812977836381
H        -1.96522780703663       2.96927109481184       0.26623344535682
H        -1.33193357848271       3.00114158541185       1.93200970536241
H         2.41183931258916       1.08761633915786      -1.02118071746680
H         2.29047688505919      -0.63978319404262      -1.53380893397289
H         3.47732597924986      -1.35492178125684       0.54513915599775
H         3.57796329397402       0.36414055878281       1.09159118540104
H         4.82542822334315      -0.77178804012549      -1.50278474479030
H         4.93613229927864       0.93798891287043      -0.93610710852762
H         6.02227787959904      -1.53994496066500       0.55361166888102
H         6.98976456502496      -0.32661542542621      -0.36726315380503
H         6.12487288169841       0.17343294822545       1.13557241120245
N        -0.24112388050223      -0.87173486602384      -6.36605411704218
S         0.07885242674769      -0.77990721654512      -4.76295638871081
S         0.94969627627230      -0.77581856622437      -7.48458397663366
F         0.22305567817791       0.82733342906542      -4.31594418616175
F         1.93021147780109      -2.12877000806512      -7.37500969675846
O        -1.04862613296405      -1.40673593749326      -3.99455885089222
O         1.36423155296587      -1.49197750861125      -4.44653972329979
O         1.78279277508903       0.45035852769881      -7.23813964226680
O         0.34564121878021      -0.70754868693102      -8.85796147712937
