43
C13H24F3NO2 optimized with ForceField in AMS.
N        -0.83710794601120      -0.19653105021327       0.03826642441443
C        -1.16590360243736      -1.23530649738390      -0.98653698067617
C        -1.97586751560919      -0.23338661089920       1.00657515455313
C         0.43310369556430      -0.55652839280567       0.74935616590308
C        -2.58579573244443      -1.71294481196830      -0.74799010533631
C        -2.80745434296419      -1.46776674708904       0.71740956129319
C        -0.76300398273543       1.14735430742389      -0.62205960197745
C         1.70125824868877      -0.51235558214144      -0.13730639024525
C        -0.40493374234665       2.31237465494928       0.33075920258936
C         2.91173477942994      -1.07516511505203       0.61760532899492
C        -0.49461351476333       3.65269412933775      -0.39339972212708
C         4.17306370991978      -1.02969370132833      -0.23948771018559
H        -1.06840727916400      -0.86501469488714      -2.03225746451374
H        -0.50637456869614      -2.13008885161134      -0.90940493721405
H        -1.64877052935163      -0.24094589391323       2.07135944024234
H        -2.65262990181420       0.64483754611210       0.89424771686150
H         0.33844590935118      -1.58044401899703       1.18041307643702
H         0.59669508292789       0.11426025426777       1.62149539970957
H        -3.29623109490544      -1.10018187699549      -1.34586939873390
H        -2.71166125153470      -2.78777591548480      -1.00381336423004
H        -2.42398911758096      -2.32901361096997       1.30791408075672
H        -3.88408304497467      -1.30687554192353       0.94421331095454
H        -0.02211890282293       1.13375472504689      -1.45190347928985
H        -1.74094559104940       1.37689869676198      -1.10624352422382
H         1.54920529594677      -1.09973849803822      -1.06517866543039
H         1.92926366674864       0.53483013700372      -0.42559609298198
H        -1.09059725502510       2.33714757211082       1.20285070042902
H         0.63227784309919       2.20337429664839       0.70877228252371
H         3.08427911078538      -0.48009670828814       1.54072103422957
H         2.71601136108017      -2.12974519429541       0.90957132489719
H         0.21446395871542       3.67544593833295      -1.24830767684402
H        -1.52639978631589       3.82189552349272      -0.76814287123409
H        -0.23257098891871       4.47348737879666       0.30683448041940
H         5.03116131780854      -1.42428513243581       0.34454223042467
H         4.04474116112117      -1.65469027084456      -1.14884424785515
H         4.39952483617479       0.01549909077315      -0.53996999351912
C         0.17345345871999      -3.60460345960785      -4.42257512246471
O        -0.57971902565587      -2.85078908580058      -3.82774708097322
O        -0.24981573251245      -4.26413243060139      -5.35804816540828
C         1.61217510882972      -3.72388313180876      -4.01473379317599
F         1.89020804064406      -5.03658337532473      -3.68072479095881
F         1.87874750885775      -2.91634706924530      -2.92339370345467
F         2.42297132692041      -3.34032257430361      -5.06713533177970
