34
C10H18F3NO2 optimized with ForceField in AMS.
N        -0.36964713681201       0.38047242132921       0.06349883612249
C        -1.41439343581702       0.65423124601533      -0.96245097926802
C        -0.85483037903231      -0.80785958947745       0.82541976057220
C        -2.68196489215486      -0.05824091955318      -0.53738190147659
C        -2.18371272352285      -1.25282963039172       0.23155161702898
C         0.92931290528126       0.10328791739535      -0.62409357103338
C        -0.25303989491365       1.55998552804467       0.96026345460823
C         2.14114589493305      -0.05526545060462       0.32346798230553
C         3.35576932961970      -0.59139914872827      -0.43077809447137
H        -1.12925545662689       0.25341463838208      -1.96363643726653
H        -1.61290363227686       1.74194063234054      -1.10439351880310
H        -1.01410458516753      -0.57909537084705       1.90506739536837
H        -0.14736779059829      -1.66566321530458       0.78756971983817
H        -3.29623873617089      -0.36403271638018      -1.41249732398631
H        -3.28183617984016       0.60022040488542       0.12768673759886
H        -2.90668845995102      -1.56227678666913       1.01696428379428
H        -2.01721624266787      -2.10247891197654      -0.46745584168088
H         1.16305843451838       0.92904392086338      -1.33568634099136
H         0.83303593251440      -0.82481638974812      -1.23507304701646
H         0.18283837980999       2.42948158744229       0.41887499658154
H        -1.25021037409076       1.86084830893802       1.35330462811028
H         0.38863906467112       1.33826952525155       1.84094721873560
H         2.41482644514559       0.93190221669178       0.75317431934672
H         1.91020777754654      -0.74787727224721       1.15911540540133
H         4.22318668289922      -0.66102765247218       0.25885922853268
H         3.14262672287940      -1.60408889576656      -0.83516152410736
H         3.62133260788833       0.08926664973831      -1.26785402840791
C        -5.49019800651086       0.28361776601736       2.94506568218083
O        -5.85839128597172       0.40256451255851       4.10273500077989
O        -4.30840311812905       0.09742946268844       2.70525798451111
C        -6.47877228676548       0.36293548584913       1.81993773219178
F        -6.10926343345038       1.37176931245201       0.94965532075504
F        -7.74740699699600       0.62920044967505       2.30578881604884
F        -6.50037725724053      -0.83997893269163       1.13888656359653
