45
C13H25BF4N2 optimized with ADF in AMS.
N         1.73303837557599       2.04127004848809       0.60502310439907
N        -0.12672335549341       2.23865054804569      -0.49397971814218
C         3.15832034039322       1.81623944071088       0.91152035668277
C        -1.09704521328002       2.26816075440718      -1.60430077736940
C         3.54410074645462       0.34300951508142       0.84303300509333
C        -1.35288091336732       0.88191666568289      -2.18218187631190
C         2.67753286506988      -0.56607827195872       1.70753908565795
C        -1.85189892923277      -0.12726826743957      -1.15301678603594
C         1.19699347495076       2.06907066414469      -0.62373486870795
C         0.72455742259677       2.15857754054872       1.53906459915399
C        -0.44544907827897       2.28195239306393       0.84795873776551
C         3.04529910468393      -2.03821140008080       1.52693205232585
C        -1.96036867619121      -1.53170293340233      -1.74563003759271
C         2.11236285031792      -2.96484208738160       2.30083624459079
C        -2.33002900157257      -2.57718056818582      -0.69799541950406
H         3.31760153594249       2.23504677570932       1.91727761033292
H         3.74214050309824       2.41410060797710       0.19612616551016
H        -0.70289795512806       2.95807756349560      -2.36588107971564
H        -2.01545218586324       2.71144080540507      -1.18847419764230
H         4.60276191270975       0.27862326844438       1.15248967599977
H         3.49572448230976       0.00887946427022      -0.20376608740609
H        -2.09119432130148       1.00559104084951      -2.99478090893636
H        -0.42964931480693       0.49856292297402      -2.64566468876345
H         1.62224567666232      -0.44476940018444       1.40870858806701
H         2.75940425909023      -0.27967732487564       2.77559884170747
H        -2.82956822457239       0.19368627531665      -0.74002030080368
H        -1.13430124660706      -0.17026855631485      -0.31546198649518
H         1.74143000303698       1.85395631004536      -1.54697532062156
H         0.92410925633846       2.13315106785936       2.60288916504178
H        -1.46697920954379       2.38937976589972       1.19013131145565
H         4.09163781410872      -2.20004532357242       1.84463434795839
H         2.99527686122240      -2.27187320453256       0.45008014471404
H        -2.70446574672726      -1.53216420650893      -2.56368535353630
H        -0.98634297828128      -1.78479973163582      -2.19620128671079
H         1.07530414351616      -2.84532711960479       1.94831705858616
H         2.13166313633400      -2.74666032772188       3.38179052028023
H         2.39287175969776      -4.02046536117786       2.16276956945598
H        -3.29859816002704      -2.35027001234253      -0.22229845117001
H        -1.56225479339951      -2.61503718269658       0.09199730575877
H        -2.39855022424583      -3.58118664616486      -1.14510076144060
B         2.02324872191957      -0.78356232053699      -2.24994579135752
F         1.18470554692912      -1.09474328552272      -3.33520025637061
F         3.00778118337344      -1.75608392982177      -2.02854383918683
F         1.22194772216538      -0.63203900698929      -1.06197029425591
F         2.65974526132228       0.50045405473296      -2.49734376146065
