32
C8H16F3NO3S optimized with ADF in AMS.
N         0.59532849663087       0.27379202787822       0.05476111534497
C         0.34044607343434      -0.92481378264418      -0.84232272212943
C        -0.77285520396002       0.54098747736301       0.64072259451021
C        -1.00663873469707      -0.62704803458825      -1.49604963704101
C        -1.74907411724949       0.32288035046233      -0.51661114099553
C         1.59386513022785      -0.03466742384016       1.15007893010593
C         1.04450065148035       1.45461454063699      -0.75424707426087
C         2.97768488061921      -0.38980443240662       0.65105921665399
H         0.27904448350934      -1.79242619732369      -0.16602003542385
H         1.18940840799643      -1.05119430891029      -1.53799647243996
H        -0.78454389678729       1.54841797112332       1.07931517936420
H        -0.92059604024876      -0.20334435178954       1.43796809896649
H        -1.55815382398939      -1.56222731447442      -1.66916322591919
H        -0.85908019393583      -0.15387137228507      -2.47648484031691
H        -2.00511048750258       1.27481457450731      -1.00290363519505
H        -2.68726067929014      -0.11026368157976      -0.14112409363759
H         1.60989320690873       0.85698799013184       1.79772816183837
H         1.14971929330111      -0.86594119276883       1.72075882390339
H         1.97583588601666       1.21370046786542      -1.29529328793958
H         0.26344667138424       1.70001002351148      -1.48167966084802
H         1.19684823217758       2.29722949893704      -0.06671189614447
H         3.59360219785778      -0.65104395013062       1.52556551869363
H         2.96435821189680      -1.24641550938472      -0.03661437009040
H         3.46268128749742       0.43987505772717       0.12005447954810
S         3.51452965178161      -0.19831392792090      -3.21728282644351
O         4.70630268345141      -0.51841508352348      -3.99485432550992
O         3.57235317869570       1.03698226896152      -2.39936783241195
O         2.85691373830486      -1.33569765026037      -2.52466840406125
C         2.22912118294595       0.23245212519967      -4.52324691833255
F         1.98898568878496      -0.81462256005900      -5.35224418269902
F         2.60335222642169       1.29371112749472      -5.27868242271063
F         1.01984807353569       0.56386587918982      -3.93736288247856
