73
C21H32F18NP optimized with ForceField in AMS.
N        -1.08613709235615       0.82339144990000      -0.17956450242051
C        -1.56337240173665       1.86694811151298       0.78648873442588
C        -2.06888902908842       0.72959288056055      -1.30827643743923
C         0.21213871065719       1.28572375953940      -0.78163877599845
C        -0.92846699459489      -0.49021046377896       0.53862340394866
C        -3.00735191183456       1.64991399322786       1.28386969594032
C        -3.51412627471204       0.45160377895877      -0.86250592782642
C        -3.98392538081567       1.52008678593521       0.11899969897753
C         1.41627797846284       1.37158665172737       0.18952070922312
C        -0.34601124579202      -1.65227681617572      -0.30319063241463
C         2.66062047178350       1.89425602930118      -0.54124814570234
C        -0.20946278629598      -2.92100575710597       0.54942783799928
C         3.87575671184632       1.94031573090044       0.39237437233051
C         0.36891341473133      -4.07955390113592      -0.27145602027182
C         5.10065058043947       2.49610998342472      -0.32823176596858
C         0.48764817133993      -5.34603353736025       0.57108662236313
H        -1.52061180175758       2.87868906122204       0.32074742582410
H        -0.91427179202193       1.90275259285016       1.68778158194268
H        -1.76834775892257      -0.03976152756113      -2.04916020710216
H        -2.08726258338338       1.68838925688106      -1.87829420390483
H         0.07936784376955       2.29541795210578      -1.23573559507675
H         0.49920150778587       0.62963057083982      -1.63355547305762
H        -1.89886441617170      -0.84077746183148       0.94028184177841
H        -0.29236326768162      -0.35771414226293       1.44118459148223
H        -3.30793825045827       2.52171874129049       1.90489951701710
H        -3.07246460397831       0.75614676031425       1.93859651516547
H        -3.61202562335473      -0.55927373649951      -0.41646166118294
H        -4.17589197928712       0.47225520080208      -1.75566432245105
H        -4.06538920904229       2.49726450043219      -0.40655692626230
H        -4.99096026632643       1.25271678926512       0.50557098771001
H         1.19268202327831       2.06197794927787       1.02808326789917
H         1.65638668234503       0.37104622030160       0.60358915738212
H        -1.01506241615287      -1.88479648534392      -1.15622394121712
H         0.65811812642449      -1.39246750303517      -0.69469183941339
H         2.45606588443081       2.91661264391119      -0.92947812483411
H         2.88884128476083       1.22880974048967      -1.40307582350320
H         0.45997286793838      -2.71441905457857       1.41361148174861
H        -1.21001586402186      -3.21167405892168       0.93967001745343
H         4.10643939472131       0.91536121529227       0.75688026848838
H         3.65254746953408       2.58478395780477       1.27046471342264
H         1.37727127330492      -3.80358843315834      -0.65027074578039
H        -0.28961803703564      -4.28844649201497      -1.14267692210385
H         5.97430953293688       2.48112481004756       0.35710620576183
H         5.33752530517524       1.87903637829907      -1.22095147101988
H         4.91694951637554       3.54358939593251      -0.64837196010757
H         0.91210935230805      -6.16495533535517      -0.04691852195317
H         1.15876704083236      -5.17114941433085       1.43892130849940
H        -0.51267814028503      -5.66010210661440       0.93830995962924
P        10.63236270303203      -1.85992703864232      -0.94323541452105
F         9.51226651380104      -3.03700790132244      -1.51056906067152
F        11.07716233982613      -0.74561239336530      -2.18079880624451
F        10.12508754577349      -2.62911028307405       0.50978710569896
C         9.02839634632938      -0.78614030693446      -1.13243232629088
C        11.66929245506704      -3.19102855556133      -1.89231803072992
C        11.89504681243636      -1.15951157821561       0.34279092194284
C         7.77488190627768      -1.21569750140579      -0.32209876321833
C        13.17453880241570      -2.91061666596044      -2.07833313297546
C        11.37409093128861      -0.09246793354262       1.32622019007313
F         8.64335065520130      -0.78177300749760      -2.46771712459932
F         9.30704735915698       0.52325145619052      -0.79570695765905
F        11.15693555595884      -3.35326660289606      -3.17647453709651
F        11.56245016931355      -4.40339771007797      -1.22510026320791
F        12.93908460832328      -0.56289254038322      -0.34084082031343
F        12.43406593893137      -2.19903050965847       1.08896899502446
F         6.79945823413776      -0.24725305326274      -0.47166637915673
F         8.03461911221421      -1.34037133457598       1.02563478168128
F         7.25014734560649      -2.40727990516328      -0.78981191866740
F        13.70505207991785      -3.88061386361255      -2.91135492692942
F        13.39247086806084      -1.68163601576528      -2.67215841062820
F        13.85564035612175      -2.98098172852390      -0.87979270781312
F        11.19560804145270       1.11880700545408       0.68538077464605
F        12.31778449798448       0.09996882068102       2.31982148949692
F        10.19891562359651      -0.47533618236728       1.93307851425822
