49
C15H32ClN optimized with DFTB in AMS.
N        -1.03828502101989       0.88150449322709      -0.16584283766686
C        -1.45059039706786       1.94431119025247       0.81780083882595
C        -2.06289560737143       0.80727212830079      -1.25888253916879
C         0.25369342769897       1.30695516993860      -0.81845081110870
C        -0.88731580969351      -0.43166942506413       0.55322932950611
C        -2.85043121928450       1.72762760799547       1.37225997406638
C        -3.47482469969864       0.55391239681994      -0.74285788429632
C        -3.88715566775993       1.63526483000395       0.25491537489052
C         1.46650585945077       1.37106408070320       0.10639653298126
C        -0.33212817484909      -1.57468645568804      -0.28908481001644
C         2.68255572094810       1.85633475495952      -0.68874677357956
C        -0.23783667419041      -2.82694347773056       0.59279476376664
C         3.91819820822956       1.92551995082687       0.21407027444934
C         0.34743919545849      -4.00788360099111      -0.18679360797973
C         5.14364797274555       2.41337219401217      -0.55620065232183
C         0.45510761217344      -5.25174625370481       0.69345847607482
H        -1.39486382785444       2.90250410930881       0.29384200542675
H        -0.72846584548271       1.92197244291873       1.64233542885480
H        -1.75916018705734       0.01970232094322      -1.95144149425947
H        -2.03195371097232       1.76513352962745      -1.78655979820892
H         0.06769533254769       2.29431429923040      -1.25123161902997
H         0.44135967976355       0.60932232707109      -1.63920210187332
H        -1.87208438216454      -0.70787786916604       0.93172114063312
H        -0.23912137722966      -0.23894869150769       1.41742215608138
H        -3.07618807950345       2.57976179555749       2.01830842822400
H        -2.88007482372589       0.82891894084904       1.99285873714924
H        -3.54516009347175      -0.43413321969154      -0.28094183955503
H        -4.14560428941394       0.56395667446785      -1.60639748673504
H        -3.96211620624588       2.59825909675786      -0.26124774191583
H        -4.86760289631895       1.39571081977395       0.67291736401165
H         1.28110468868874       2.05338981604391       0.93744586720504
H         1.68093423302348       0.38896712174842       0.53019734568026
H        -0.97811008663659      -1.78378436116610      -1.14804325293512
H         0.66504931032817      -1.33394859208508      -0.66559795614554
H         2.47641018022589       2.84805631957110      -1.10745333622360
H         2.87388405058924       1.17404050682066      -1.52519291299130
H         0.39405520212080      -2.60930774939740       1.45910625499970
H        -1.23517976641622      -3.08794143662986       0.96196630458442
H         4.11884473122127       0.93304368805797       0.62949669300200
H         3.71764971264401       2.60326289454162       1.04961051391090
H         1.34103118202228      -3.73939163313346      -0.56132471378340
H        -0.28856700257844      -4.22586537364727      -1.05196756565712
H         6.00672714906942       2.45691227311722       0.10800266461518
H         5.37322690737305       1.73649001542512      -1.38066847927657
H         4.96833024619973       3.41005508377196      -0.96401588497283
H         0.87529783056992      -6.07893943423205       0.12114148328934
H         1.10112107032265      -5.05733730195963       1.55022687452266
H        -0.52890855160976      -5.54657584228308       1.06039004163939
Cl        0.47861125090239       0.87788025603393       3.15698430971043
