38
C12H18F3NO3S optimized with ForceField in AMS.
N         2.37307419460742       0.03280433101504      -0.54027482044023
C        -1.44437025786877       0.04876636412195      -0.69116800740189
C        -0.03962561073914       0.02024384727107      -0.07875238504918
C        -2.51985851957935      -0.01659146428268       0.40044263623257
C         1.04368334827641       0.07763874452326      -1.16097031251481
C        -3.92580091225169      -0.00130743979723      -0.21034947340191
C        -4.99979240090855      -0.07007491416131       0.87190646596193
C         2.96653656355016      -1.17510133009822      -0.29402575198825
C         2.98607129198242       1.19657790343360      -0.16411782052440
C         4.20258665661998      -1.23879054069304       0.35421134071621
C         4.22223537937031       1.16879224113509       0.48596075435223
C         4.82825910642228      -0.05790543606140       0.75104766173240
H        -1.56359096008053      -0.81821401126263      -1.37783849237937
H        -1.57129829899379       0.98519585128725      -1.27802514018395
H         0.08406701705345       0.88860359165002       0.60522430230209
H         0.08719194089048      -0.91329103252218       0.51247121342726
H        -2.38686577667985      -0.94870408547043       0.99317233098791
H        -2.40530325238865       0.85462022717744       1.08287386696021
H         0.92980450392252       1.00919198307510      -1.75961697299670
H         0.92012234330393      -0.77538652321034      -1.86537980339728
H        -4.06828552673233       0.93077191996697      -0.79957900196034
H        -4.04736268344507      -0.87099712628683      -0.89239034943318
H        -4.91882239564642       0.80374154768954       1.55306359444305
H        -6.00453656342078      -0.05939050343204       0.39921319025886
H        -4.89528596641126      -1.00583163548132       1.46148890771303
H         2.47691370326419      -2.09699290814000      -0.58518593304777
H         2.51210948184810       2.15269992190133      -0.35201400559895
H         4.66506219736983      -2.19652104152810       0.55604647204764
H         4.70076421146368       2.09066241811605       0.79065596507814
H         5.77748062704134      -0.09185574344103       1.26756266223652
S         8.86630261266794       0.81766962304169      -0.06321666703032
O         9.95741068990417       1.33929814833924      -1.00974567574347
O         7.58014392412669       0.99284549310482      -0.88382385808054
O         8.76227486969574       1.92696629516743       0.99370845157216
C         9.15068791107082      -0.85007445371913       0.59015727525624
F        10.33280389291447      -0.86835629558993       1.30457083780770
F         9.23115917849862      -1.74672563300497      -0.45756749218082
F         8.10740071278123      -1.20663516193410       1.42144988306718
