35
C11H17F3N2O2 optimized with ForceField in AMS.
N         0.99899592851418       0.35677676186099       0.44556283411620
N        -1.02897418902073       0.34600938494774      -0.46560005287563
C         2.25113878818903      -0.10750899736053       1.03914664143348
C        -2.28070121196626      -0.13244967796076      -1.04914979850683
C        -0.01224216196436      -0.40949390315854      -0.00704153017937
C         3.42808372867294       0.10754973825820       0.08183738977150
C        -3.45388904450838       0.07467653662858      -0.08493418667416
C         0.60993792951082       1.63560902483800       0.26785918885503
C        -0.64923993759176       1.62895828460354      -0.29735854745890
C         3.29451503827475      -0.73650154523378      -1.18487689202026
C        -3.29194428775901      -0.74530514464482       1.19440319340219
H         2.17560141224739      -1.18688997729545       1.29728571551178
H         2.43612113603183       0.44797617877304       1.98388041029791
H        -2.19633136807940      -1.21220099772567      -1.30269851025305
H        -2.47700036589392       0.41707236759270      -1.99509780063383
H        -0.00908858852862      -1.49269420199393      -0.00129257841772
H         3.50329672545448       1.18170634336038      -0.19329190661289
H         4.36540944719795      -0.17815488379585       0.60402868490889
H        -3.54637952213343       1.15169196645373       0.17353833461307
H        -4.39177318484135      -0.23824043576791      -0.59282565124321
H         1.19447490791890       2.50714162251315       0.53330364336782
H        -1.24076527442738       2.49435391051577      -0.56728353856251
H         2.42653724356797      -0.39486549517356      -1.78781015887698
H         3.16051702812695      -1.80840249768864      -0.92470991422769
H         4.21326096574500      -0.63268147241619      -1.79955659553880
H        -2.42540990013308      -0.37710047363511       1.78351904656723
H        -3.13982110062720      -1.81858908516884       0.95045706390260
H        -4.20626876200411      -0.64846971197075       1.81664627961502
C         7.92465291710057      -0.87619023302102       0.31033810362412
O         6.84958861391171      -1.24492427853564       0.75610869718311
O         8.84747820324363      -1.67082446962953       0.23139733706168
C         8.11824839127827       0.54263051498396      -0.13937171569452
F         9.14199731148100       1.12211272495191       0.58728055273071
F         6.96071009283065       1.27805603540176       0.04881944949089
F         8.44875706658095       0.56072927509308      -1.48173298607690
