43
C11H24F6NP optimized with DFTB in AMS.
N        -0.98825038432303      -0.02970507835833       0.16219147146079
C        -1.22010367081750      -1.27628303157769      -0.64005535497096
C        -2.19899850636149       0.09959123803897       1.06084738774350
C         0.25060518382417      -0.16315322037436       0.99928795726503
C        -2.72887920016451      -1.36208309605754      -0.80399853101214
C        -3.24746948385756      -0.88804108655890       0.55293901602904
C        -0.91279966321275       1.14901711813128      -0.77147553370629
C         1.53162690730546      -0.36561387155047       0.19769255554829
C        -0.53180052141248       2.47026848315378      -0.10260191857103
C         2.71220702944831      -0.45986920551409       1.17383842896819
C        -0.75111864436414       3.61859061539812      -1.08507733175127
C         4.03285358848143      -0.63253436249052       0.42810502945811
H        -0.67558832936628      -1.21989065834048      -1.58217048353219
H        -0.85148449236834      -2.12312373302051      -0.05644748967665
H        -1.89362079366559      -0.11442242556549       2.08421008371911
H        -2.55311565983325       1.12784947672600       1.02079937250695
H         0.08701628611904      -1.01151895332432       1.66776318823800
H         0.32453417286690       0.73744832312121       1.60723743349160
H        -3.07083632670656      -0.70499858615323      -1.60736101502982
H        -3.03973880143438      -2.38218048021233      -1.03221180226847
H        -3.33280505903750      -1.73362308489053       1.23948183095436
H        -4.22585462420416      -0.41338853468147       0.46880323863550
H        -0.18555801121263       0.90337139271388      -1.54988849217916
H        -1.89703074550497       1.23447363265518      -1.24005580836935
H         1.47465514235241      -1.28006927508599      -0.40126684444114
H         1.69771398923172       0.47447922340122      -0.48210480898037
H        -1.12969381201966       2.64187736940494       0.79291764654516
H         0.51755648095276       2.45074750765502       0.19884091624471
H         2.74887254772691       0.44983553148262       1.78047268519985
H         2.55747576381918      -1.30767502543716       1.84856216761698
H        -0.15193624083883       3.47853295310859      -1.98611786492418
H        -1.80170292583163       3.68682322557048      -1.37050481241435
H        -0.45800666323913       4.55569972939939      -0.61389131336311
H         4.85384841820233      -0.69563455273220       1.14179727353722
H         4.02050576393743      -1.54492010620570      -0.17009469880437
H         4.21237917275375       0.21543594763835      -0.23413174442814
P        -0.68740822160775       2.15605832116520       3.96531355458237
F        -1.90328432324830       2.27933921660527       2.80872410259346
F        -1.81010633523999       1.88593077642080       5.11166116482888
F        -0.63399980011852       0.50267931289840       3.63945913451977
F         0.52927623546707       1.98098445182058       5.02928592753980
F         0.42599450973185       2.37868797021263       2.72744487761253
F        -0.74713397912976       3.76322530120942       4.20090609698383
