54
C14H26F6N2O4S2 optimized with ADF in AMS.
N        -1.39869295540716      -0.36260778779389      -0.77949562123290
C        -1.47306129127976      -1.22979574396085      -2.03012833487066
C        -2.73575152004565      -0.46457940120021      -0.05535540851647
C        -0.28409994604159      -0.80252161495300       0.14277433002353
C        -1.19997357274064       1.07140819753513      -1.24822809864700
C        -1.81785497111641      -2.67608432984339      -1.72564899756189
C        -3.11884578302911      -1.89775547206142       0.28056624242798
C        -3.14460405559044      -2.77386424367334      -0.97119430771610
C         1.11878346911013      -0.69546503758122      -0.42990210171441
C        -0.99082579847762       2.10034699471746      -0.14997255756615
C         2.14372606927270      -1.21148046300326       0.58404640555980
C        -0.88842792954385       3.49406865149171      -0.77471273598509
C         3.57026721883340      -1.13963834324014       0.04724008188727
H        -0.51600039149672      -1.11938846920605      -2.55590169181029
H        -2.25545491618814      -0.77868813875835      -2.65533276581269
H        -3.47068338273437      -0.01175720886555      -0.74051778627833
H        -2.65521474050672       0.15542230377366       0.84757551985633
H        -0.49375849233592      -1.84196612981148       0.42205493315114
H        -0.38077029476217      -0.19151170525947       1.05305564221239
H        -2.09837084984144       1.30631848416511      -1.83724815565677
H        -0.34379158303151       1.05323119261635      -1.93735899310050
H        -1.00219706523467      -3.17231589651974      -1.17035356529137
H        -1.89344303255783      -3.19159932580726      -2.69713313804952
H        -4.12036358069039      -1.85568621782889       0.74043592334857
H        -2.44694745488811      -2.31755502952851       1.04909967342503
H        -3.94952868325385      -2.42286706113351      -1.63813506678690
H        -3.35873612681781      -3.81986136163398      -0.70221513953875
H         1.36057133885535       0.34892119816508      -0.68862227845559
H         1.20687188553551      -1.28862788949034      -1.35517178873731
H        -1.83506290701731       2.08942908592531       0.55841682071494
H        -0.07225948232450       1.89101180077168       0.42439590356853
H         1.89951774770037      -2.25615547081629       0.84938568400711
H         2.06624055035398      -0.62453071219261       1.51688357225988
H        -0.71925567540322       4.25054179681352       0.00495162782894
H        -0.05558470872502       3.54883600897298      -1.49218310329274
H        -1.81175041496744       3.75143623142969      -1.31370339708111
H         3.85268421590286      -0.10169749488632      -0.18906728941352
H         3.67604773880179      -1.73572366725617      -0.87272993487537
H         4.28953078810245      -1.52636116244452       0.78457285913776
N        -3.66562811314439       0.26303788845149      -5.02771538973369
S        -3.13317291709208       1.58217461185859      -5.80289838435393
S        -4.57387906648203       0.32539632500374      -3.71516857541519
C        -1.46436240688489       1.95933554986945      -4.98158957034585
C        -6.30439601984152       0.96674338772302      -4.20761156067733
O        -2.73587878380672       1.17412628311590      -7.13876708020275
O        -3.91526086446987       2.79018874323974      -5.57711983326465
O        -4.12893891350322       1.26233183412718      -2.66640789475712
O        -4.82146161545905      -1.05887886404491      -3.30631774762260
F        -0.69625115037202       2.69533330810462      -5.81651204831948
F        -0.77723218411181       0.81642906131071      -4.67687055260610
F        -1.61922338643547       2.66515457388666      -3.83079390800720
F        -7.21756039487780       0.39124168891492      -3.38492754623869
F        -6.59470589614904       0.62720963303170      -5.48053412337588
F        -6.39254857478929       2.30190880367928      -4.07087276169729
