62
C18H23F18N2P optimized with DFTB in AMS.
N         1.09427901896982      -0.42472928844375       1.97276780219291
N         1.66783990012040       0.03752521645555      -0.05593502579051
C         1.07346887697110      -0.43238524688787       3.43346763915941
C         2.12272372139500      -1.39139952595145       4.00610619407643
C         2.39673129451855       0.68435643864726      -1.15543206474373
C         1.77417969035918      -2.86399806492018       3.78049925617498
C         1.83002605641550       0.36891214298349      -2.53785201857170
C         1.87528423390861       0.35034735068318       1.22280688714731
C         0.39030133513185      -1.26589480007576       1.15784303956448
C         0.74882053637313      -0.97087384172720      -0.12093151496357
C         2.83075574966314      -3.76976522237596       4.42341449920431
C         2.37047779293076      -0.94832191345066      -3.10659375344854
C         2.46030701908375      -5.24434829797097       4.28084113114695
C         1.76583699898927      -1.24909934775187      -4.47572040562166
H         0.06673143966860      -0.71926441478380       3.74987612241305
H         1.27493307181460       0.58881312935738       3.76791364530000
H         3.09352441136265      -1.16750460750381       3.56052357714836
H         2.18725865171867      -1.18941524996853       5.07974938520698
H         2.35839091554392       1.76098463046512      -0.96393999032382
H         3.43794032906016       0.35649561477363      -1.08937778297823
H         1.72737596321714      -3.06925463497666       2.70716614439794
H         0.78819592048438      -3.07704483773489       4.21017829408293
H         2.12695094230144       1.18838587553598      -3.20039647403427
H         0.73607051081736       0.35824703639893      -2.50440064554888
H         2.55775297699663       1.09892719287591       1.58524819446320
H        -0.30345679043264      -1.99187373775826       1.54258858682471
H         0.42529410602612      -1.41365673252387      -1.04425873510002
H         2.92594854405407      -3.51960870810737       5.48596388087390
H         3.79737589087731      -3.58536130992625       3.94618466384258
H         3.45900964614877      -0.87738388694284      -3.19367026796672
H         2.14888834007168      -1.77083507158255      -2.42308842266775
H         2.37654170848193      -5.51752011841204       3.22928866340836
H         1.50785225389696      -5.45060708087578       4.77219542315359
H         3.23050546117799      -5.86416000881562       4.73988894826276
H         0.68081956601731      -1.34105768659564      -4.40499043996066
H         2.16992470330370      -2.18612955808156      -4.85751872286292
H         2.00220520704352      -0.45362080398212      -5.18379885801094
P         4.85374041495862      -2.36518918228345       0.57670441597883
F         3.32456974368679      -1.99621585388335       1.21889093545309
F         5.36532917586005      -2.96580455389280       2.04808021260617
F         4.29710831757757      -1.74697800135377      -0.91044664011643
C         4.03282306757066      -4.11516540813356       0.21425564002793
C         5.36355052449352      -0.51721409912030       1.18920921932609
C         6.64415973642491      -2.62136849626771      -0.26806661437914
C         2.94814813999784      -4.24444270565927      -0.88768964231897
C         6.71552860839340      -0.18138562323518       1.89191353031860
C         7.02349450955643      -3.68877143521140      -1.33454530673735
F         3.42020352293168      -4.52640158524248       1.34402592340195
F         4.98488528545810      -5.02250204961483      -0.05950128350020
F         4.44398992891923      -0.12208290297068       2.11308552924555
F         5.24014355441568       0.36719712189257       0.17521393186537
F         7.55921426689923      -2.72279266982871       0.71220375210451
F         6.85065862587175      -1.43371808780332      -0.88174459387436
F         2.46168338821126      -5.48420053844529      -0.91860722943125
F         3.39802884206843      -3.95233097206961      -2.10120334240467
F         1.91803629087191      -3.42231679009833      -0.62854019320212
F         6.59278061477220       1.01848416068608       2.47770584003399
F         7.00576071622699      -1.06022893301003       2.84386918879139
F         7.73720436448357      -0.10421259197294       1.05329115720909
F         7.37903427676618      -4.83801800779501      -0.77563611456106
F         8.05406141051053      -3.25581643381893      -2.06073097246802
F         6.00911851139109      -3.91173936681680      -2.17042745532021
