17
C5H9ClN2 optimized with DFTB in AMS.
N         1.23968072673313       0.26960145043804      -0.03926494620300
N        -0.87351378523007      -0.06676076971840       0.10681025973623
C         0.31441700815838      -0.66719320280317       0.13512531318097
C         0.63806073526093       1.49116271395028      -0.18175281216304
C        -0.70093497893281       1.28035680629474      -0.08809828499065
C         2.67047839435704       0.00237247796883      -0.07942739822280
C        -2.15002721859216      -0.74430904241032       0.25199095368175
H         0.56750099463733      -1.73778165841810       0.23960305354266
H         1.19961706939820       2.39629254670913      -0.33393124105800
H        -1.53071899422594       1.96306974292195      -0.14405548300305
H         2.80952776611303      -1.08171227719985      -0.03782455968340
H         3.08353122634838       0.40434209397304      -1.00414662031563
H         3.14889377849626       0.47884357521011       0.77636065294775
H        -2.68233977981030      -0.33594096762490       1.11150406494211
H        -2.74408602725762      -0.59581312319487      -0.65029368341886
H        -1.96359686768896      -1.80616227560680       0.40153827754429
Cl        1.85624301483520      -3.20862730628970       0.17939852938268
