47
C13H28BF4N optimized with ForceField in AMS.
N        -1.55056275159949       0.10102350872100      -0.07668370237781
C        -2.56589512843905       0.49171651282522      -1.10758554376304
C        -1.79022750762853      -1.32365220470083       0.32200640406439
C        -0.20932501753017       0.19236304266111      -0.74708051361629
C        -1.62162556495523       0.98303558708655       1.13993499147983
C        -4.02317287645399       0.27850243695589      -0.66786230259080
C        -3.23236440394355      -1.61172828409467       0.78432291327974
C        -4.25265664736340      -1.17327584070607      -0.26169001625038
C         1.01551759052965      -0.12331152161571       0.14565966013673
C        -1.27203499754859       2.46542084379228       0.91208288267413
C         2.31248481899793       0.03551162890547      -0.65652205422483
C         3.54124555143685      -0.30162077370135       0.19492504897269
C         4.83015082261358      -0.11368473630889      -0.61255903943597
C         6.05858662563144      -0.47215365552061       0.21529209633929
H        -2.41846416294608      -0.10938526736744      -2.03559881606223
H        -2.43897384072914       1.54850538397435      -1.42200411955938
H        -1.11921624569739      -1.61963639244185       1.15766474726486
H        -1.56725877108865      -2.00898473576954      -0.52828394613845
H        -0.06865246594073       1.20266727566435      -1.19235093559490
H        -0.17310330696542      -0.50886753060681      -1.61306223835988
H        -2.63137350666337       0.96272760283832       1.59216102806348
H        -0.95661601148282       0.59488841538206       1.94117558683958
H        -4.69462039034566       0.52099032818005      -1.52001239134724
H        -4.29910096364585       0.96413894300823       0.15881465996642
H        -3.44284638358630      -1.11650072948121       1.75506070232838
H        -3.34344515742067      -2.70489706602115       0.95253275690480
H        -5.27834476728653      -1.28488150897361       0.15053547051697
H        -4.16988976615896      -1.82741965150085      -1.15765416161153
H         1.06334563688910       0.56712102769817       1.01121860857565
H         0.96282614872341      -1.16553809094193       0.52116563949777
H        -0.22969530456450       2.59782871142038       0.56221538406916
H        -1.97482073294598       2.95061630888818       0.20711462118593
H        -1.35781479735517       3.00506831153960       1.87888989539223
H         2.39308246164863       1.08431456297520      -1.01724974511511
H         2.28436459953840      -0.63968875616467      -1.53946279062214
H         3.47165337285038      -1.35675428689513       0.53907597494902
H         3.56634114333426       0.36137746409444       1.08742022834565
H         4.80593520477047      -0.76067656834274      -1.51595662251535
H         4.91516064961311       0.94498863527725      -0.94061720180731
H         6.01779474543741      -1.53691858436538       0.52799635677567
H         6.97383137933518      -0.31689475451477      -0.39397435023336
H         6.11741194664080       0.17327473474547       1.11707173381378
B         9.14784232567085      -1.16125934634508       2.16736285960182
F         9.58384135419005      -2.01794653382808       1.12197650561079
F         8.85312898401627       0.12195873590232       1.63608317346463
F        10.17332773447935      -1.04163062309742       3.14184413861261
F         7.98267614653810      -1.70593008643010       2.77000088979999
