48
C12H22F6N2O4S2 optimized with DFTB in AMS.
N        -0.99579697202395       0.36207268056105      -0.56174633568201
C        -1.14120352872113      -0.81346141870084      -1.47790902947689
C        -2.21513674928609       0.29422611752275       0.30310875332035
C         0.23934926269451       0.27163222813483       0.28594629193342
C        -2.63446544387036      -0.90281770805396      -1.77878314857067
C        -3.33697141248330      -0.17675549581578      -0.62024772195392
C        -1.00488257688910       1.63143854767761      -1.33749811503779
C         1.54091230412828       0.21104500880192      -0.50991952814264
C         2.71708216144442       0.02887409171718       0.45548802512355
C         4.03501090445987      -0.11871640091843      -0.31240926357371
C         5.21343388966235      -0.29692878178615       0.64175336394080
H        -0.79050971706390      -1.69803177944766      -0.94166282792499
H        -0.53285848982571      -0.65594285355347      -2.36810944737509
H        -2.39599256084864       1.27181823299161       0.75083523180265
H        -2.02760123870576      -0.43625208743820       1.09362746456798
H         0.13638509440900      -0.62911983257733       0.89878546639425
H         0.23195253997823       1.14386969110324       0.94579141915329
H        -2.94275825125240      -1.94755043223560      -1.84288916934860
H        -2.86386107113593      -0.42141440051601      -2.73048294703452
H        -3.91741013370465       0.67092434300524      -0.98922466123490
H        -4.01288573488098      -0.84087450023148      -0.07894200280328
H        -0.19015678080656       1.61473520647732      -2.05567091951246
H        -1.94895268790837       1.72053178019663      -1.86776620389714
H        -0.88009401035260       2.46918889119362      -0.65451428322371
H         1.51293938433360      -0.62472951957119      -1.21226516685351
H         1.67957026332715       1.12730604099549      -1.08538086106272
H         2.55002157022232      -0.86281439516912       1.07127168721129
H         2.77515540024446       0.89263404348907       1.12656378654969
H         4.19626897823410       0.76951955453307      -0.92867879694889
H         3.96923833189414      -0.98368601630001      -0.98012608077026
H         5.30780218869421       0.56845605118527       1.29943761264211
H         6.13740557454767      -0.40288220073017       0.07336476981090
H         5.07978170275171      -1.18815645927760       1.25722064928224
N         1.84259565145744       2.11308977445023      -5.14799958916853
S         1.04346145750349       0.77696713790627      -4.82745722401457
S         1.86577502277236       3.25151712266755      -4.01356120120142
C        -0.76899375209880       1.14591454714425      -5.21589149106009
C         3.36169516184879       2.83862088737240      -2.94584091534301
O         1.41112104502848      -0.21978660843848      -5.79189037376466
O         0.99830099171976       0.36653591997322      -3.42515404687027
O         0.75717373927436       3.23581502307332      -3.07558669536729
O         2.20317000780656       4.49527616094081      -4.64264370203959
F        -1.52645222240232       0.82545865630907      -4.15162025416453
F        -1.18486783455439       0.42040129173889      -6.23762260018654
F        -0.96414603680824       2.42221949924507      -5.48407149833573
F         3.03328425440003       2.94304226837504      -1.65814154851152
F         4.35815618295466       3.66686361473634      -3.19334097174559
F         3.77296270473124       1.59767670794315      -3.16412849553144
