32
C10H15F3N2O2 optimized with DFTB in AMS.
N         0.43303189859838      -0.51421292189968      -0.28676454938834
N         2.21393622318921       0.15073236427585      -1.30755746616750
C        -0.42289882171906      -1.06735361905777       0.75958364606517
C        -1.48563909899629      -0.06975863724523       1.22740661818011
C         1.76955397268838      -0.49772073164116      -0.22811175640828
C         0.02264524281210       0.21798550560141      -1.37730669487356
C         3.61955216874016       0.35233603939785      -1.63858549107605
C         1.14142913874863       0.63186528595155      -2.01939609218677
C        -0.88283631182434       1.21494259529529       1.78887405273579
C         4.08677184979184      -0.72636881988982      -2.60931849985418
H         0.23249882481457      -1.34080415868470       1.59078141240937
H        -0.90221253967604      -1.97253769137639       0.37057230859883
H        -2.16140155710723       0.16297582068555       0.39836955708502
H        -2.07322228963243      -0.57239667998293       2.00202146961458
H         2.38576016164850      -1.09080822975051       0.42495730012043
H        -1.01605328221961       0.36991157886147      -1.61038187972322
H         3.72558898692502       1.34696916174698      -2.07950418645732
H         4.18633560223786       0.30342458729180      -0.70386339022123
H         1.26591821375746       1.22130154627403      -2.91071491362122
H        -0.32305035936986       1.74453841463437       1.01941885990700
H        -0.20130294414253       0.99115131457399       2.60867356153673
H        -1.67838286434208       1.86328870223820       2.15554765560326
H         3.96563568867614      -1.71318308236463      -2.16310653281445
H         5.14012724450835      -0.57059154080850      -2.83763474721523
H         3.51373758002180      -0.68633781412377      -3.53583313108263
C         3.19372278731374       0.87887738975251       1.83828044392854
O         2.02120625054542       0.97921362022762       1.44047643626063
O         4.10411210780469       0.17807000413312       1.41260890501556
C         3.53715743070928       1.79569358316816       3.09952761334588
F         3.43138028029065       1.09444738154368       4.24283658207130
F         2.70719417749367       2.84357286080842       3.20419121419631
F         4.78424762541365       2.28232394146322       3.04538620291547
