37
C9H13F6N3O4S2 optimized with ADF in AMS.
N         0.01146499289647      -0.89885997515748       1.10945627502350
N        -1.93497374159124       0.05569613706427       1.17849451668651
C         1.13984603293113      -1.72283031180299       0.66318143445334
C         2.31237311131964      -0.86412699089882       0.19782279417960
C        -1.14267387782564      -0.74599474057627       0.45208282875240
C        -0.05220783217795      -0.20095339033417       2.29516569774270
C        -1.27798085232091       0.39260602901304       2.34347128621964
C         1.96721580555880       0.02533691815463      -0.99244898949136
C        -3.33379174073270       0.35793600061769       0.88417305032785
H         0.75278977825269      -2.37276169544366      -0.13437728933344
H         1.41249242881572      -2.37158103707376       1.50904914776178
H         2.67565979457629      -0.24899639281067       1.03994115154600
H         3.13432840037763      -1.55215143669337      -0.06255878801010
H        -1.40548500845231      -1.25075822596894      -0.47006167876224
H         0.75593079319039      -0.21514413575514       3.01520472084242
H        -1.75684167591302       0.97411582308529       3.12075926772418
H         1.16721507128189       0.73914241558695      -0.73967913822209
H         1.63019420577834      -0.57778120051334      -1.85030056014341
H         2.84272182562589       0.60854871498818      -1.31247589845879
H        -3.49296541398673       0.28225911828175      -0.19620940763260
H        -3.97308368665731      -0.36708520101313       1.40904769859556
H        -3.54712260435837       1.38139966308427       1.21427397387464
N        -2.04421904896349      -3.08491561946014       1.72576115504935
S        -2.24670360641083      -4.06139125206179       0.47164228192584
S        -3.02254375437757      -2.84083344462741       2.98029583920975
C        -3.85994856117195      -3.59856409619124      -0.41057162462473
C        -3.29985725229551      -4.48924808263389       3.87026225362633
O        -1.23901817432817      -3.64733619182348      -0.51371724264623
O        -2.40977480982856      -5.46866023036719       0.79600165874170
O        -4.36488794577781      -2.40311804169251       2.59325511243733
O        -2.27061265847438      -2.04062643800726       3.94265507862479
F        -4.95200771133684      -3.97986964804422       0.27087840380675
F        -3.87327399880242      -4.19429172872305      -1.62579612593859
F        -3.92135266208799      -2.24425983184160      -0.61162516994392
F        -3.87798641913051      -4.22767057413498       5.06821497375735
F        -2.12337928591761      -5.11933647680907       4.08462545452321
F        -4.11547289248505      -5.29579715071649       3.16481540507497
