64
C18H26F18NP optimized with DFTB in AMS.
N         1.17166925034916      -0.56867417520937      -0.59373011743456
C         2.27840488291090      -0.63741252585917      -1.60467131126374
C         1.68613254395151      -1.45312957594435       0.50058865519226
C         0.98421505583840       0.83576333358124      -0.10642256791676
C        -0.09806939115810      -1.13115173934850      -1.17643819146581
C         2.70955630027876      -2.09808769844624      -1.61608513557340
C         2.36063395904160      -2.62440065681283      -0.21473110983786
C         0.49962798847241       1.79225559815142      -1.19519708281956
C        -1.30625596184964      -1.06112560753117      -0.24495977529167
C         0.48679035242951       3.22993883326340      -0.66420356459043
C        -2.43156460410022      -1.94474787259078      -0.80050405150607
C        -0.00457565357685       4.19386321231616      -1.74226312131454
C        -3.66963232989644      -1.87847114254844       0.08957299974579
H         3.08433483740668       0.00955308282830      -1.24965332081761
H         1.92478776745997      -0.28459573228269      -2.56826746191040
H         0.86968597140418      -1.75480631990040       1.15511504559523
H         2.41145976447012      -0.87477776389767       1.07766512090491
H         0.27599414380957       0.80280663313410       0.72501030938350
H         1.95228081380118       1.16735688468352       0.28024841411623
H        -0.30268772223061      -0.57985948910274      -2.09296077405183
H         0.10934462896917      -2.16708210302909      -1.44655906977290
H         2.17211979875729      -2.65050713886510      -2.38909200400756
H         3.77778411054507      -2.17400808969308      -1.82314595262796
H         3.25172401119919      -2.93203609367062       0.33508444628142
H         1.68734996132041      -3.48136231162110      -0.27624556848034
H         1.15534884021985       1.73566808509316      -2.06657828673201
H        -0.50815423639638       1.52261156781335      -1.51729532239712
H        -1.04872433384014      -1.40375600987363       0.76193661196223
H        -1.66408564371811      -0.03058470006743      -0.16708871002782
H         1.49702316698043       3.51293762674441      -0.34938348815223
H        -0.16785637214704       3.29038771699495       0.21194663255686
H        -2.68860506411635      -1.61269974130401      -1.80880697155734
H        -2.07971195132717      -2.97899475331025      -0.86667705127270
H        -1.01651806398092       3.93342609314608      -2.05324231748748
H         0.64786850266867       4.15328938986348      -2.61466865797930
H        -0.00873263417195       5.21253573192796      -1.35532905128760
H        -4.04583807091614      -0.85625676079878       0.14645796868055
H        -3.43819112600317      -2.22130309996432       1.09932406972841
H        -4.45277956220267      -2.51402130284676      -0.32268399674744
P         0.21551786931246      -1.01057260897576      -5.51510930270601
F         1.57380803761517      -1.79560522682279      -6.09477584007830
F         0.74887636274424      -1.35501122811837      -3.90761616999274
F        -0.33501656607181      -0.65618231095597      -7.04478514064356
C         1.28658930315979       0.63764916434512      -5.51785971147752
C        -0.65856510460140      -2.76339437547992      -5.59244296357468
C        -1.33774498497774      -0.07619732966562      -4.64369373348656
C         2.57246485847673       0.68067261104726      -6.38591571502902
C        -0.33614792751095      -3.78199104532742      -4.46451352367870
C        -2.50637651733715       0.55960336272978      -5.44218420738467
F         1.70370893617452       0.96955216494829      -4.26592684069971
F         0.50249584555728       1.64368806566600      -5.93784213177026
F        -0.30266229663545      -3.35495980671733      -6.74255862748309
F        -1.99739323839328      -2.63388772665596      -5.62075464616470
F        -0.85144892167046       0.91012584065880      -3.84693018601226
F        -1.90871537120761      -0.96128518196467      -3.78847550936309
F         3.03004841194147       1.93549960808375      -6.44988532257782
F         2.35960342851507       0.26073285035695      -7.62374340249275
F         3.53256678299332      -0.06316945301349      -5.83552827848498
F        -0.88267134874098      -4.96673950870993      -4.72808013707474
F         0.97557163562998      -3.96240355452207      -4.31724812781629
F        -0.81912296327827      -3.37729232732479      -3.27991556019197
F        -3.43247865245153       1.01566365919001      -4.58892538319140
F        -3.08998840575090      -0.32284818057978      -6.24240193829507
F        -2.09377435034466       1.58548140808494      -6.17620780965343
