33
C9H15F3N2O3S optimized with ADF in AMS.
H         1.06518681311590      -0.79354938186600      -4.53070030506403
H        -0.02816684687943      -1.72341824229716      -3.45651889378389
H         1.75691391991488      -1.87597428107141      -3.24254361483706
C         0.93173547738226      -1.19962654551732      -3.52071052193623
H         2.21235269866495       2.38156529399431      -0.85918128931406
H         2.68307723452800       0.97335876432549      -3.21260781433801
H        -0.65156081552152      -0.71049861562037      -1.23084773361266
N         0.93164174328836      -0.09959822297673      -2.55999524092385
C         0.15256020655453      -0.02998886802646      -1.47399001558231
N         0.56082858510131       1.00091830911642      -0.72293202607434
C         1.66377586861368       1.57202376239162      -1.32215860203267
C         1.89506695547601       0.88429288801439      -2.47619318443309
C         0.04386485268832       1.31516349495758       0.61822003853013
H         0.21175980407153       2.39161894454872       0.77914267086382
H        -1.04559540848924       1.15145931419678       0.59188651969958
C         0.71364616084844       0.46764504824402       1.69303909842516
H         1.80415222847345       0.62204616598182       1.64775870384300
H         0.56811091079080      -0.59818027455956       1.44809842636788
C         0.17157023312159       0.78469420030942       3.08391339505604
H         0.33315083867265       1.85433885344410       3.31514813319395
H        -0.92254155952899       0.62093665819251       3.10580098537027
C         0.83859269917339      -0.07789008361084       4.15433808687222
H         1.92723308908981       0.08725449053989       4.16594521820722
H         0.66983076312461      -1.14741866640679       3.95378642732993
H         0.44590709709684       0.14991090363676       5.15649168961549
S         2.85998037752155      -1.83976152995071      -0.43679704436864
O         3.31669604591769      -0.57086956513831       0.15657553230227
O         3.38306355960023      -2.13136283181010      -1.78639378184522
O         1.41214239152836      -2.12514285364701      -0.27082227833578
C         3.65970032169385      -3.13554946152690       0.65523341910626
F         3.24976250631389      -2.99228601864472       1.94699563248422
F         5.01332172914530      -3.02446179253972       0.63305539049468
F         3.33426423120698      -4.39215663748371       0.25276413001974
