43
C13H24F3NO2 optimized with ForceField in AMS.
N        -0.22276879406438       0.30416627428734      -0.16368637213248
C        -0.92024614900472       1.28124761638146       0.73614346801461
C        -1.11991381435603       0.00117889084054      -1.32638113644784
C         0.12527632324656      -0.93555443514071       0.61513120364506
C         1.00504530869866       0.96429907502938      -0.73007798754009
C        -2.32776662807342       0.83330771684852       1.18365049748342
C        -2.51304413701302      -0.51438496777529      -0.92944196619084
C        -3.21187211018759       0.48288792699692      -0.01032309932157
C         0.91529472895328      -2.01678864687164      -0.16157078204567
C         2.13314941741503       1.28222110677335       0.28272237999524
C         1.21987647120637      -3.21311998775904       0.73803054357912
C         3.28556631963529       2.01790157417799      -0.40033669351865
H        -0.33139185197263       1.46230710912866       1.66071581381477
H        -1.03138895852727       2.26770746688510       0.22957430221804
H        -1.28134688298534       0.92104839265122      -1.93304750839579
H        -0.65440370148319      -0.72358323726198      -2.02575261751695
H         0.70404725608769      -0.66490279693489       1.52542039515844
H        -0.78699359565844      -1.42482240506038       1.00812322335672
H         1.43857824059759       0.34425080052564      -1.54619095322066
H         0.72351105481751       1.92246918341114      -1.22143336578018
H        -2.26827289019441      -0.02849476952801       1.88032720163596
H        -2.80487055187037       1.66380377922443       1.74817560691396
H        -3.12399260388311      -0.63840403316465      -1.85001699397189
H        -2.45166620355398      -1.51261006125799      -0.44930321802993
H        -4.16782466600584       0.04585438468998       0.35132801400147
H        -3.45207373697724       1.40842891581067      -0.57887461533273
H         0.32784343426157      -2.39270711569059      -1.02286327625853
H         1.88104350025506      -1.61901356291890      -0.53349200171943
H         1.76145786579638       1.92688339910994       1.10407597414278
H         2.54607447805545       0.34995919024168       0.71895572327664
H         1.78068063502818      -3.97986971149189       0.16288893459233
H         0.27611055066924      -3.66924583890121       1.10669931975430
H         1.83741705403320      -2.89829360038867       1.60610600099344
H         4.09269499282194       2.21374741219098       0.33706041196137
H         2.93804132473101       2.99090656774144      -0.80855918745040
H         3.70352856151794       1.40330361870516      -1.22610661184668
C        -0.16100558240734       4.30181249746040      -3.05987425860550
O        -0.90615735395535       3.35103237941868      -2.88752762928008
O         0.99585122140572       4.24018463436497      -2.67577349480004
C        -0.65963115735386       5.54339782115439      -3.73557431515680
F        -0.60495419133976       6.60271969895202      -2.84895115360258
F        -1.96703402238607       5.37502156213380      -4.15879492144205
F         0.13549312131968       5.82444549291007      -4.83128428123030
