55
C17H35NO2 optimized with ADF in AMS.
N        -0.57203072284016       0.58192299292740      -0.02899671914329
C        -0.79079530522684       1.40866965368506       1.23205132038246
C        -1.81853131481648       0.60685365334056      -0.88539341535750
C         0.53752285941223       1.22625677190298      -0.84748891784242
C        -0.19110683680271      -0.82937737882747       0.39273843998465
C        -2.05351881739100       1.01536056034975       1.98106341952840
C        -3.06546168153421       0.15699227216389      -0.14306232022107
C        -3.29837300749344       1.02139173873341       1.09608676785745
C         1.89977035322459       1.25125245113618      -0.18757793773979
C         0.15534719027579      -1.78729832329521      -0.73120418380936
C         2.92548652848446       1.93928612057560      -1.08815039837138
C         0.63549148338971      -3.10395140905396      -0.10728816865617
C         4.31233695036438       1.94421792021313      -0.44323644703048
C         1.10525703808813      -4.11267892160420      -1.15185749099707
C         5.36760220545228       2.63136276906602      -1.30597201832234
C         1.63890637588740      -5.39795955671644      -0.52163650543370
H        -0.85027803455719       2.45619516131584       0.89127716006618
H         0.10757575625179       1.23955272162501       1.86976899820204
H        -1.61415570684321      -0.01508325030687      -1.76857762787200
H        -1.93422219556044       1.65155156058052      -1.21766068556375
H         0.18103078523031       2.24888794976824      -1.05799521643918
H         0.56855726848972       0.67868442500554      -1.80266322781839
H        -1.03441151893752      -1.21571526498135       0.97803134519508
H         0.68910043205595      -0.73387563588906       1.06702161591170
H        -2.15699632973919       1.73083189435246       2.81353209568054
H        -1.91375707855829       0.02782488158400       2.45077627965742
H        -2.98270811661339      -0.90713404565026       0.13521927510319
H        -3.91260082475817       0.23296805711958      -0.84587157758205
H        -3.51941576913407       2.05703395845876       0.77589063356595
H        -4.17777625403931       0.66257664081625       1.65518374674515
H         1.85003891916407       1.76924773601719       0.78341646469730
H         2.23780490849963       0.23113042615410       0.06053971519422
H        -0.69845177960155      -1.98208573784093      -1.40722496973719
H         0.97992108750228      -1.38189003261013      -1.34273303913217
H         2.61522267789882       2.98222249291823      -1.29705521428105
H         2.98182644874984       1.42302686494908      -2.06662467088291
H         1.45508031374809      -2.86871203987498       0.59492017412892
H        -0.18291626573117      -3.54772281013854       0.49220488155196
H         4.60832606872986       0.90100462232324      -0.23436892029091
H         4.24478091039194       2.44352973002827       0.53979706188781
H         1.89933505820280      -3.64854571456169      -1.76601866641346
H         0.27226657389375      -4.34876291530046      -1.84069882617689
H         6.35629406666870       2.62094787433033      -0.82105266860857
H         5.46877632285303       2.13009712293303      -2.28256808795058
H         5.09876104740965       3.68355739307892      -1.49569216980063
H         1.97459259075641      -6.11761157969109      -1.28462053336198
H         2.49281688659645      -5.17948142697826       0.13898348126157
H         0.86336539877096      -5.88887663633723       0.08807299961962
C         3.34093118711569      -0.57179144760637       3.96824536086900
C         2.34333888259328      -0.33933372503515       2.82529661806909
O         1.51868162468879       0.61663812435944       2.97654125421509
O         2.44105547815151      -1.10655677352161       1.81659401915481
H         4.18272150059321       0.13055866779732       3.85367116804926
H         2.87295566337485      -0.36920582623606       4.94232293568478
H         3.74392106001795      -1.59403478565198       3.93968838017266
