24
C6H11BF4N2 optimized with DFTB in AMS.
N        -0.45543453960435       0.08040080469191      -0.24869690680756
N         1.64765044680161      -0.20038748730447       0.10370166251560
C        -1.86049304206981      -0.21626857457957      -0.50880159064808
C         0.54861061303357      -0.78679886777365      -0.36145919636941
C         0.00397808672719       1.22395973047587       0.34710311196353
C         1.33231111593923       1.04861456204536       0.56542270866776
C        -2.53668892860578      -0.68789303502549       0.77523374650892
C         2.95049515909813      -0.83118595221595       0.23031082776809
H        -2.32835009408057       0.69624853982334      -0.89074031364272
H        -1.90290311405908      -0.98878616769656      -1.28120868746123
H         0.48570330281158      -1.77836314851637      -0.77250904793506
H        -0.64258578435033       2.05495355331970       0.56698457614333
H         2.06539626537867       1.69483045316598       1.01475606359840
H        -2.10684644797303      -1.63476412260952       1.09613886394362
H        -3.60282606318202      -0.81369858892233       0.59145220396580
H        -2.38729839055348       0.04270061089988       1.56839408952428
H         2.83863798434503      -1.89611548575059       0.04171456261249
H         3.64690473254779      -0.38542987178315      -0.48176144047805
H         3.30423205619262      -0.68737288007072       1.24952738601882
B         0.34532261906915      -2.02057212069787       2.37936736509948
F        -0.06975059514443      -2.75261358151445       3.45722594193881
F        -0.15881246014702      -2.59082472210299       1.16288531788798
F         1.74783515984733      -1.98403334417067       2.27184036176756
F        -0.13766672442199      -0.69516585248768       2.43682306881762
