43
C11H24F6NP optimized with ForceField in AMS.
N        -0.23217430849413       0.31069844244814      -0.16654363123779
C        -0.92006597529013       1.29086852877679       0.73651369021459
C        -1.13252068743597       0.01763208887263      -1.32796786428788
C         0.10847699079334      -0.93409369688190       0.60795213247228
C         0.99835326540241       0.96353022547305      -0.73225757518926
C        -2.32901711419070       0.85132960662149       1.18596239445404
C        -2.52313237950860      -0.49903023758034      -0.92425738660845
C        -3.21528264030235       0.50266425774486      -0.00624328891408
C         0.88033262042162      -2.02013056894841      -0.17939021524000
C         2.12465020844430       1.27173655795422       0.28538105999701
C         1.21639804391246      -3.20897254813751       0.71852536393429
C         3.28219885303918       2.00111502239122      -0.39174361025864
H        -0.32836121780132       1.46480542045301       1.66047130908843
H        -1.02461769014186       2.27882305647939       0.23158874613861
H        -1.29295962257856       0.94342201604482      -1.92858207132186
H        -0.67078126131114      -0.70586894953665      -2.03060790271384
H         0.69375828360965      -0.67087596954385       1.51603868874417
H        -0.80466618910388      -1.41697964624397       1.00589151806891
H         1.42960204685361       0.34067208866453      -1.54698177696537
H         0.72264297022378       1.92376752348415      -1.22678597812269
H        -2.27231514585488      -0.00894120900359       1.88501453198218
H        -2.80388780139714       1.68574409252628       1.74667395052433
H        -3.14077205607953      -0.62823077617418      -1.83949927303152
H        -2.46019999074467      -1.49538651503947      -0.43981218064439
H        -4.17377035278914       0.07220005416416       0.35724026907626
H        -3.44694598099342       1.42864050017453      -0.57755262520029
H         0.27045923436694      -2.40358057290789      -1.02186031606995
H         1.83173327817233      -1.62182598862497      -0.58148889739705
H         1.75543907611726       1.91865736316619       1.10613053450002
H         2.53087549961983       0.33688754792959       0.72254978325012
H         1.76910859787509      -3.97344561614621       0.13233339092106
H         0.28612419344057      -3.67095509352888       1.11255110608385
H         1.85510602131514      -2.88490554259424       1.56748133693128
H         4.08418261436888       2.19796558941546       0.35112248438183
H         2.93686057794771       2.97320192796864      -0.80473551705523
H         3.70306869813894       1.38109159789355      -1.21186771897762
P         5.54590467413548      -3.55014705252275      -0.85399365946885
F         4.95177850573155      -4.87224347875969       0.06852607471685
F         6.94356117359389      -4.43824404461412      -1.31112232785464
F         4.64174695749524      -4.16390713434851      -2.17983891685162
F         6.07345027006692      -2.24953267200857      -1.84468507324112
F         4.23391308438930      -2.56975533757259      -0.34186608252671
F         6.42139451664200      -2.96910825172840       0.50503720819870
