39
C9H20F2N2O4S2 optimized with ForceField in AMS.
N        -0.41771550996756       0.16844394077675      -0.07225241504974
C        -0.98971179165848      -0.89109915334556      -0.95951691656016
C        -1.46946963859937       0.41686332850492       0.96115244313940
C        -2.45182285221761      -1.07392327341797      -0.59947757985026
C        -2.51092479077996      -0.67971976619571       0.84914294332255
C         0.82736481699863      -0.33234567721661       0.59600986443609
C        -0.17476439307914       1.41203927911337      -0.87322685922724
C         2.00328087720254      -0.61088067268097      -0.36959495994687
C         0.42922479023953       2.58079527236117      -0.07326772393704
C         3.16240949126690      -1.28199570740165       0.35944558934377
H        -0.49668789607753      -1.87896727456899      -0.80842542199344
H        -0.89292772974985      -0.65693103760606      -2.04445638447547
H        -2.00065759685522       1.38265125200173       0.79703770876581
H        -1.06741625223962       0.45385995516560       1.99942507058338
H        -2.79110489475598      -2.12175796354015      -0.75327422987709
H        -3.07976832262703      -0.38387882744728      -1.20572570266279
H        -3.52430856888896      -0.32329008270133       1.13623436142463
H        -2.22156704123753      -1.54283369284880       1.48908299955725
H         0.59716968870998      -1.27063195405479       1.15310207286956
H         1.17424585012076       0.39062166507159       1.36738903199054
H         0.49439219427214       1.20244538930377      -1.73620578461335
H        -1.13122752876472       1.76497199439858      -1.32306694397208
H         1.68707573171142      -1.27050167813884      -1.20396643272105
H         2.38218580258068       0.33769602696548      -0.80259778983608
H        -0.16983405143586       2.81288348456121       0.83047886698298
H         1.47474754847787       2.36552098304613       0.22653618834585
H         0.44807047533808       3.48728047110150      -0.71406659206466
H         3.53495474792244      -0.62904587072443       1.17744383674048
H         2.84198529004752      -2.25696668881117       0.78482303019390
H         3.99087689955730      -1.46225751190072      -0.35712805859096
N         7.63211171807494      -4.52299739402838       0.07407510536810
S         7.30321342843774      -3.29978963337373       1.10906668289847
S         6.57972711451021      -5.75576606208136      -0.14667383720296
F         7.54421788253057      -3.82730451553656       2.67875975195434
F         5.28695877382649      -5.21742831592411      -1.06360578041702
O         8.21677275160606      -2.14138149950131       0.82567927732174
O         5.87280878547910      -2.86729899717019       0.95794834544219
O         6.06735087549315      -6.24016742748514       1.18085413644949
O         7.26788953973035      -6.88069851626997      -0.86620824483225
