40
C12H25NO2 optimized with DFTB in AMS.
N        -0.46752316160150      -0.15878689471870       0.27477802371509
C        -1.14750494914567       1.14469113507236       0.57899249056778
C        -1.09076496768217      -0.79934789011415      -0.92141699570669
C         0.97270869498611       0.18444756936531      -0.02533558815360
C        -2.65670776142947       1.01545429035049       0.72922433907427
C        -2.59338506738668      -0.99533700726554      -0.75436767833015
C        -3.28143295359324       0.34403102151888      -0.49335863092786
C        -0.53155690666527      -1.05091444609687       1.46641675260471
C         1.91169717008620      -1.01211456097318      -0.11622944010392
C         3.35338995321243      -0.50919656740633      -0.32293714709300
C         4.33933547125778      -1.33900207447373       0.49651209403171
H        -0.91163258384695       1.82605044443181      -0.24288656600360
H        -0.68644645445363       1.51652222981448       1.50189272461132
H        -0.59353365361649      -1.75791353814669      -1.08342020762534
H        -0.89312297880368      -0.14899371127664      -1.77870627542181
H         1.29243965899237       0.82823537035836       0.79916340247183
H         0.97583915374291       0.75872124283632      -0.95599168456550
H        -3.06053375384753       2.02452774940788       0.84473867866236
H        -2.91011816050019       0.45466894991818       1.63252952617806
H        -2.79751579502495      -1.69070130624983       0.06427965929378
H        -2.97751503430251      -1.44092749118595      -1.67580513931360
H        -4.34924693995689       0.18454305289836      -0.32547458501504
H        -3.16672439672848       0.99048167815273      -1.36980388973568
H        -1.54163427758026      -1.06360302044381       1.86561993028910
H        -0.24301653189717      -2.05811669808611       1.17594132710003
H         0.17014875200571      -0.66754766574557       2.21131509281197
H         1.62395810575434      -1.68875125175568      -0.92668256449288
H         1.87433894235545      -1.56080323636986       0.82631130834542
H         3.42686708826135       0.53385375675624       0.00119009794256
H         3.61307339034409      -0.54512563806997      -1.38601545321372
H         4.29223868663059      -2.39075404432082       0.21043572429887
H         4.09428954604450      -1.24962340960893       1.55598393616521
H         5.35564472910781      -0.97759890437858       0.33709753055914
C         2.74073709709877       1.39976586433461       4.26846188858596
C         1.83717954006865       0.78414976564239       3.17730754202023
O         0.91515857009416       1.51322589091968       2.74113819889900
O         2.09517317924473      -0.37931386176938       2.80599214602009
H         3.32908056142713       2.20051497984356       3.82131845820734
H         2.11949539466083       1.82416710260869       5.05550631644021
H         3.40626179978677       0.64467874642601       4.68181240620633
