41
C13H21F3N2O2 optimized with DFTB in AMS.
N        -1.23992588477009       1.34914579327038      -0.09622645251474
N        -2.61578479470186      -0.01028980139156       0.84830437537937
C         1.18257809508405       1.82642826352072      -0.30510496175303
C         1.77968319151269       0.41785925795034      -0.35108585143343
C        -0.20040074205249       1.89573991928221      -0.96350140925044
C         3.19172672823451       0.40131739731010       0.24168738929868
C         3.75772753524783      -1.02158859631410       0.25821356407841
C        -1.65803086311619       0.08401685607897      -0.06854532691610
C        -1.90460801809668       2.05928260873197       0.87249700235707
C        -2.76788077805107       1.19770103677898       1.46862143053190
C        -3.23549908696235      -1.26066580358295       1.27122923543942
C         5.15354304230929      -1.05598591330393       0.87768691133959
C        -4.68374965603507      -1.32776777750722       0.80803407955029
H         1.83451287427516       2.52225236205272      -0.84290887092843
H         1.10536036315494       2.16638813591996       0.73067368353919
H         1.80949563692313       0.06838303069227      -1.38992786042790
H         1.14451499254322      -0.26573652897333       0.21862394521197
H        -0.46969261993176       2.93494140049610      -1.17168794029215
H        -0.21403694009236       1.33276787495701      -1.90123634745818
H         3.15666959168656       0.78860475077764       1.26425436677563
H         3.84681649740193       1.05615997482959      -0.34471734628957
H         3.80085996507469      -1.41162054504212      -0.76507911655827
H         3.08906572631803      -1.66620380331189       0.83659779664684
H        -1.29663326332974      -0.71835272890390      -0.68562090112759
H        -1.70779372903519       3.10147821793548       1.05178436732605
H        -3.44464111650838       1.33329871571729       2.29323846343217
H        -2.63729999811030      -2.07286004251974       0.85305907467564
H        -3.16093804403069      -1.29772100352533       2.36212778515381
H         5.12086532862964      -0.69602921633182       1.90671117364370
H         5.84211603797390      -0.42655945484427       0.31107114717611
H         5.53718751875140      -2.07671062154069       0.87909098517445
H        -5.26106236530818      -0.51013860131836       1.23920433391867
H        -5.11783561541720      -2.27262704699347       1.13139323410130
H        -4.74399738894532      -1.26527671222771      -0.27886283116203
C        -0.39840134619261      -0.69423202193837       2.68868659014200
O        -0.27211891116149      -1.22098833933635       1.57764172151807
O        -1.39000033487646      -0.46257323159943       3.37089316192832
C         0.98063217746740      -0.13157699964040       3.30380908240704
F         1.20423297858243       1.11777717854881       2.81101052609968
F         2.05479927394306      -0.86388671927366       2.96681483205498
F         0.97690550121159      -0.02095550012995       4.63564054971149
