56
C16H34BF4N optimized with ForceField in AMS.
N        -0.02131730228279       1.99275122685387       0.00456444708247
C        -0.69411923642775       2.90133188862134      -0.97495759194541
C         0.63837547112104       2.90572837764039       0.98861239066273
C        -1.04059952787895       1.15160218396800       0.71374689531887
C         1.01034480038657       1.16903673534463      -0.70793408376754
C        -0.21957163070254       4.31816487405184      -0.71577184588111
C         0.13270133432364       4.31449336222302       0.74444139605587
C        -1.79393092762171       0.14917772916500      -0.19321936254268
C         1.76829522430695       0.16190714933798       0.19125479471034
C        -2.87525614051362      -0.59455372490249       0.60064562058234
C         2.88768112291149      -0.53094635014458      -0.59663939881309
C        -3.62629376287928      -1.59726382754354      -0.28352159422439
C         3.67065547271341      -1.51012666053602       0.28620682436077
C        -4.68588162788319      -2.35343543692616       0.52651723631291
C         4.74512115976790      -2.24068239854373      -0.52876223925355
C        -5.43664620198555      -3.35626893293370      -0.34462367980476
C         5.49908868500196      -3.25210280758997       0.32937843887547
H        -0.49912075309816       2.62775429383617      -2.03714693951844
H        -1.80140553909399       2.90756177418318      -0.85326692759952
H         0.45480147826922       2.61867316790079       2.04928366470672
H         1.74485050694662       2.93452656707615       0.86137384664178
H        -0.56777077185998       0.58463596811605       1.54568452885650
H        -1.79303848913180       1.81310614566136       1.20349400811101
H         0.54986283525579       0.60737724386344      -1.55017977404659
H         1.75807526560837       1.84439228450474      -1.18591468811977
H         0.68726125197183       4.53098808418362      -1.32433296775009
H        -1.00790194146011       5.06848445542538      -0.94358980354500
H        -0.77897993463374       4.50041166923322       1.35470358111063
H         0.90380503754037       5.07997927914547       0.98022907948722
H        -2.27099845937506       0.67431115616090      -1.04658901956517
H        -1.08840550087660      -0.60119927059798      -0.59981795130453
H         2.21061009425967       0.67835829797169       1.06864258015454
H         1.07348280606322      -0.62108504712396       0.55971498882578
H        -2.39818967457264      -1.13718833239572       1.44609310909904
H        -3.59873150273501       0.14102328350673       1.01561663453749
H         3.58685046202092       0.23463780475478      -0.99880989091661
H         2.43934344059091      -1.08367674239010      -1.45121938856198
H        -4.11930910178264      -1.05384283890113      -1.11934454120858
H        -2.90429082773521      -2.32586514665039      -0.71291629135727
H         4.15575678434233      -0.95054082579716       1.11598280629175
H         2.97059564429616      -2.25412806814309       0.72530530579244
H        -5.41573388841137      -1.63236366494693       0.95452090237192
H        -4.19838032847142      -2.90007585233477       1.36293706577782
H         4.27271547922481      -2.77727268194753      -1.37977367014177
H         5.46992933904771      -1.50407012373121      -0.93830187765514
H        -5.95734067053876      -2.83293768795572      -1.17440785722689
H        -6.19350529401734      -3.88813725375196       0.26951175823719
H        -4.73243114792783      -4.10465372165317      -0.76612644287575
H         4.79821324100809      -4.01231201785010       0.73519860002639
H         6.26186072855561      -3.76912641121207      -0.29019767036431
H         6.01249746548246      -2.73865062582639       1.16970697975999
B         0.55827678541174      -4.18539297544778      -0.55807284485841
F         1.83760372173596      -4.00615956762311      -1.14599953466849
F        -0.12618818961741      -5.23452635408688      -1.22692943754998
F        -0.18777211265019      -2.98521683899618      -0.67587727766285
F         0.70861770669990      -4.51592728204623       0.81482486717969
