46
C12H26F6NP optimized with DFTB in AMS.
N        -0.96048898704402       0.23158995968638      -0.11282730389622
C        -1.55956224193323      -0.47271215936329      -1.30275453914034
C        -2.06678198691886       0.88023338345679       0.67415302253788
C        -0.19469519317369      -0.71405469942436       0.77804726366513
C        -0.06905331836464       1.31102083533181      -0.66488867529950
C        -2.66571619103354      -1.45378891138165      -0.94163218184488
C        -3.17238134459126      -0.08745374973124       1.07964316656707
C        -3.77345387955188      -0.77577272565737      -0.14215743009353
C         1.02150288249454      -1.37197509992049       0.13228075533629
C         0.72615113458280       2.10042948599300       0.37432070803605
C         1.78201922183704      -2.16521258778008       1.20436684502299
C         1.52967472462809       3.19344669925334      -0.33051464578761
C         2.95823130034458      -2.91943717163866       0.59066949919223
H        -0.74665658201415      -0.98507703080631      -1.81997094365803
H        -1.95268134397098       0.31112590471381      -1.95807262931206
H        -2.47891296208818       1.67394533439064       0.04305175389685
H        -1.61818333687141       1.33173050268356       1.56099817703519
H        -0.88857384315996      -1.48808961154423       1.10055404814266
H         0.10551313534427      -0.13894497725778       1.65723699034865
H        -0.71389415225618       1.99270647024854      -1.22672973388013
H         0.61493743635842       0.83516650990857      -1.37135963801716
H        -2.26402543315814      -2.29496250660961      -0.37974516930546
H        -3.06779936668281      -1.84292946111099      -1.88059229140513
H        -3.93705872487306       0.49824838772838       1.59702690825010
H        -2.79192464974195      -0.83345576816598       1.77866363623099
H        -4.29543356807620      -0.04215083269485      -0.76686064806658
H        -4.49400374813146      -1.52929196503549       0.18230443045323
H         1.69256610381621      -0.62941610178643      -0.30943701423108
H         0.69963178909160      -2.05863648836301      -0.65399657182302
H         0.05485522560280       2.56157187381714       1.10295848732646
H         1.41432792127715       1.44428891140490       0.91132537662270
H         1.10139156940648      -2.87862847346798       1.67483918436617
H         2.14404871023042      -1.47701333407511       1.97616120688619
H         2.09910297001075       3.75974546487324       0.40536575709604
H         2.22496740746661       2.75531107853990      -1.04702661563488
H         0.86640953966772       3.87794975251543      -0.86027750768719
H         3.65676080411417      -2.22926453361746       0.11361091975421
H         2.60361448064759      -3.63005380153561      -0.15633515641378
H         3.48759820698878      -3.46942947349250       1.36831410229859
P        -1.71435830249925      -4.38108735051011       1.42194079495718
F        -2.13302098314213      -2.83563621378181       1.96516875158114
F        -2.64777530519263      -5.03691106761419       2.57858689877816
F        -2.99347025846872      -4.31048099650547       0.38141019267869
F        -1.28140762205365      -5.83898133948962       0.84972089147790
F        -0.76471187052281      -3.63699381619379       0.24005913786845
F        -0.41763008919523      -4.34533354878998       2.43300580778941
