53
C15H32BF4N optimized with ADF in AMS.
N        -0.73295430033789       0.65664633728039      -0.23293903843015
C        -1.33389906472548       1.78438673938291       0.57928927605754
C        -1.54060490062828       0.48910706563952      -1.51495110673534
C         0.68332850506026       1.03207389446324      -0.65386524917086
C        -0.72488015545154      -0.61714251258255       0.59333684922091
C        -2.82040209632260       1.61000704318373       0.85847181398106
C        -3.01889070600975       0.27117242159136      -1.25200798802302
C        -3.61275694500420       1.41844842546481      -0.43434782807670
C         1.68891231603519       1.21574497665611       0.46734422994175
C        -0.09064104344862      -1.81895539066116      -0.08202161402575
C         3.03902131056031       1.60371442541567      -0.14872426895392
C        -0.11270364771666      -3.03116636206146       0.84993712297032
C         4.16426889766827       1.68158779111705       0.87921643267725
C         0.52349596331528      -4.26068842624402       0.20209822044307
C         5.50093607111507       2.04924216583347       0.23857814687120
C         0.51116746142797      -5.48055929955133       1.11812015779971
H        -1.16113638784643       2.69579687572260      -0.01589841717438
H        -0.75346243288815       1.86140505257947       1.50844837312802
H        -1.06011292288173      -0.31029231758572      -2.09649814749853
H        -1.37208007694466       1.41454902390822      -2.08655539273506
H         0.57976528208034       1.94667553988518      -1.25606335645033
H         1.01587519682697       0.25258733870908      -1.34878926978026
H        -1.76893818908406      -0.83392491545279       0.85337169922059
H        -0.19901948815554      -0.36536290443859       1.52740011278923
H        -3.15676724011792       2.51054351122886       1.39990737574160
H        -2.98998429040301       0.76305628815910       1.54510780538049
H        -3.19692884481697      -0.69596383454681      -0.75031045392327
H        -3.50954424465418       0.19496201878761      -2.23689482429022
H        -3.56477495079008       2.34785133372605      -1.03077588634877
H        -4.67615430644987       1.23683764990612      -0.20965298138648
H         1.37730975438897       1.99687859554940       1.18361959431144
H         1.81813957016485       0.27842882094844       1.03665455564520
H        -0.61605952849432      -2.06431690490716      -1.01765698755245
H         0.94831694313022      -1.60488555129247      -0.37647476923858
H         2.93663496440721       2.57814996432334      -0.66077225950500
H         3.29330280784249       0.87742833591718      -0.93949979288107
H         0.42467945170642      -2.79485694343103       1.78851759954921
H        -1.15495883297090      -3.26868533842329       1.13803497696148
H         4.25620122378949       0.70590038493870       1.39189488581987
H         3.90691878925231       2.42064769894172       1.66107393930748
H         1.56101344956901      -4.01680372212766      -0.08872578278388
H        -0.00878296342664      -4.48820826274510      -0.73879342304376
H         6.30945977188569       2.09603175909770       0.98410820024020
H         5.78317458367183       1.30787899142460      -0.52567060430768
H         5.44172420680672       3.03025659067514      -0.25964339332534
H         0.97593366712284      -6.35189675909176       0.63204613380371
H         1.06376086796553      -5.28148237452824       2.05086004150865
H        -0.51932018903936      -5.75924951441163       1.39291700183400
B         1.27048582751008      -0.18223616993921      -3.80340079686072
F         2.47078001370605       0.03817709534757      -3.06099002193959
F         0.48626020979358       1.01767463677877      -3.77751441363897
F         0.51639023167794      -1.21108748018101      -3.10532709625416
F         1.53892854522791      -0.58488413658010      -5.11096601656976
