59
C17H21F18N2P optimized with ForceField in AMS.
N        -1.14647399981684      -1.68159054563182       0.21207370173644
N         1.07509813687748      -1.64637577973147       0.29344071275653
C        -2.54519853339407      -1.47357807872913       0.58161240424251
C         2.43508357358730      -1.39003793504480       0.76424156743160
C        -3.12658209789944      -0.24797464729971      -0.13521259418772
C         3.07113245447909      -0.21740448371873       0.00629456720193
C        -0.06588859603296      -1.43504556455115       0.97754444174956
C        -0.67426898636449      -2.07319561394652      -0.98890552227289
C         0.70446244258588      -2.05392252509832      -0.93773835687807
C        -2.42437117508004       1.04924040664413       0.29177628075350
C         2.28296995540641       1.08659407038731       0.19224079800073
C        -3.04530114771332       2.26430696817790      -0.38972378985341
C         2.96467966138511       2.24737315977389      -0.52537858932831
H        -3.13332690754077      -2.37626239718641       0.30899405361786
H        -2.63401698779986      -1.33581998563472       1.68191647319936
H         2.42666476131656      -1.16278573077898       1.85318545827834
H         3.05120144102609      -2.30294140822809       0.61577717278968
H        -4.20840066551522      -0.17754151350876       0.11164577389611
H        -3.03409916703885      -0.38246148056620      -1.23511445020002
H         3.13318137386457      -0.46657322746313      -1.07553014750132
H         4.10576966809708      -0.07565698009909       0.38748304946745
H        -0.10927758847354      -1.06167131208656       1.99344105812617
H        -1.28546707554321      -2.32778740078799      -1.84500906343023
H         1.38408177915352      -2.28965309254950      -1.74638914731897
H        -2.50379494801679       1.17428164589084       1.39367360369343
H        -1.34798534846503       1.00510300002237       0.01974809971882
H         1.25754158062532       0.97189733146314      -0.22019862889985
H         2.20284271752486       1.32676106879078       1.27470151068035
H        -4.11763891407971       2.35542597477452      -0.11492512488410
H        -2.95408524878258       2.17542142633868      -1.49325331981037
H        -2.51541113284183       3.18391423315086      -0.06291230528332
H         3.03977843378682       2.03677755941065      -1.61366309782932
H         3.98245619161514       2.41249585485996      -0.11225539932997
H         2.36849856416110       3.17335427668782      -0.38356809023415
P         8.29455783246508      -3.50042539415663      -3.81603402476983
F         9.30238234724985      -2.75259189346618      -2.63312728691912
F         7.77047495990167      -5.02596045821448      -3.20967055267649
F         8.63972613256754      -1.89196978191643      -4.31981076473200
C         6.93938213083484      -3.05130212583276      -2.51324742854224
C         9.98940151201663      -4.42362986525754      -3.95948729471169
C         7.62069784594334      -3.59213303918825      -5.61317841323417
C         6.63554224863294      -1.54682882148855      -2.34634741813814
C        10.05698466073489      -5.64934505173573      -4.90533651610758
C         6.41447774593747      -2.70497167222503      -5.97420830430835
F         7.33928805042970      -3.51810054898791      -1.26627763256879
F         5.74825341459587      -3.69254298530102      -2.81498177431936
F        10.37133884743316      -4.88637544957588      -2.70378719513182
F        10.95000999436862      -3.52119411825585      -4.39090391396285
F         7.25591111037222      -4.90157019915715      -5.87046336467684
F         8.63518710822335      -3.24698623462842      -6.49073692832724
F         5.72688612319080      -1.38935812061711      -1.31672219504629
F         6.07663987753485      -1.01542134475882      -3.48768388542428
F         7.77223574748349      -0.82923934886467      -2.02272433998405
F        11.26502027627858      -6.29453724556207      -4.70513909797206
F         9.04896336225234      -6.56012645015373      -4.65259918444770
F        10.01110818448569      -5.27528843788316      -6.23233263282425
F         5.33792612636807      -2.94719581620290      -5.14898630531655
F         6.02167478295236      -2.99933390781629      -7.26809214596284
F         6.74940736175288      -1.36405480128526      -5.93674991919381
