34
C10H18F3NO2 optimized with ADF in AMS.
N         0.46192975568550       0.43494053974803       0.11528869707684
C        -0.48674547679093       1.63002989280327       0.04528611177960
C        -0.06825677604846      -0.68751581964341      -0.76826065846826
C        -1.93019475925749       1.27015825262113       0.34784891547260
C        -1.51061801496183      -1.05123852821449      -0.45625432611254
C         1.79252101332871       0.92374809517371      -0.45248102109884
C        -2.41819236104055       0.16897026647375      -0.59182161842551
C         0.62333325707198      -0.02485660702853       1.52164821710156
C         2.92220999880388      -0.08231498206147      -0.41765102482624
H        -0.39059638009543       1.98467005548713      -0.99648823806974
H        -0.08018005970635       2.38077014606180       0.73948295692634
H         0.60714514946225      -1.54169102307338      -0.62542136451009
H         0.01310457540485      -0.29828464262968      -1.79643386430750
H        -2.51945188065803       2.19172171403750       0.20727800608677
H        -2.06923717021377       0.97084424037678       1.40249023572641
H        -1.60681944738139      -1.49826905797762       0.54981020874966
H        -1.80018071055340      -1.83691369616542      -1.17378668796898
H         1.53916141198053       1.22186659849693      -1.48494882571052
H         2.04341123803106       1.82772950517995       0.12364841379455
H        -3.46419361882967      -0.09703283182585      -0.37090636743594
H        -2.36996518906616       0.53744215435468      -1.63228559810757
H        -0.35637931198313      -0.26280839274931       1.94721054888378
H         1.25660533824019      -0.91894583471052       1.53826183296165
H         1.09387282552198       0.78056384419438       2.10038069230276
H         3.78449011303215       0.38985033030565      -0.91322847599807
H         3.23834572440396      -0.35710931240596       0.59938442356621
H         2.69324040277222      -0.99299390156160      -0.98846911311044
C         0.21812521250888       2.39479871549106      -3.71291234132244
O        -0.38351637647735       2.68783796616787      -4.74741152460571
O         0.05341062628750       1.44483134512231      -2.87967427121395
C         1.40789052739570       3.34216955163223      -3.29432380187020
F         1.21195688979908       3.86820826695581      -2.02424499665281
F         1.60854206817088       4.39634158754385      -4.11920593893409
F         2.60656258026263       2.65486740671943      -3.22555937007928
