29
C7H16BF4N optimized with DFTB in AMS.
N         0.72410969782210       0.11231776236495       0.19296810757499
C         0.53455495462918      -1.35472881375942      -0.05264310300005
C        -0.20077093329446       0.40958209643076       1.33630947306142
C        -0.93736404471392      -1.63478408504162       0.23407896459700
C        -1.42353468656873      -0.47357346779476       1.11308687820918
C         2.13640097204888       0.46175209364681       0.57217125960135
C         0.30580443419288       0.88667314303632      -1.00284927019957
C         3.18141637693501      -0.12546759310731      -0.36084759198852
H         1.17200332993159      -1.88688123547951       0.65495740315880
H         0.83125150280786      -1.59206580985897      -1.07476568286596
H        -0.42313936062182       1.47719637781420       1.35315409268992
H         0.31227675995192       0.12226540297353       2.25639798527301
H        -1.02318024444395      -2.58314811484255       0.76625532929126
H        -1.51827047984351      -1.69757456749750      -0.68940537360292
H        -2.22993666971536       0.07854092285721       0.62416731758947
H        -1.78415520725505      -0.83878502751590       2.07549338371613
H         2.19333771964317       1.55329634804989       0.59297491813387
H         2.30161568974223       0.07468376640795       1.57991796408441
H         0.95024982174148       0.63182108317311      -1.84148447306647
H        -0.72489144191078       0.63871560017871      -1.24665718698628
H         0.38748056746475       1.95021532560906      -0.78459966409051
H         4.15008282856178       0.27955159404714      -0.06814394872250
H         3.22272279256019      -1.20818590548919      -0.25152613803145
H         3.00223041594923       0.12763273690050      -1.40552449162696
B         1.72483737224283      -1.86103683365083       3.14522215124885
F         0.39608831549832      -2.11567136585541       2.71796595759380
F         2.57009055294768      -2.07203625042951       2.01977786669619
F         2.08075917228254      -2.64121734155262       4.20068675836024
F         1.79962700921399      -0.47702678101503       3.45441329550132
