41
C11H21F6N2P optimized with DFTB in AMS.
N        -0.86468387522213      -1.30627360588955       0.76011468178488
N         1.26796425115115      -1.39260045451330       0.47245772391784
C        -2.15833795301617      -1.14504986214195       1.42460973170368
C         2.69959063452986      -1.34151814643641       0.76846273577513
C        -3.00662776796947      -0.06056960643454       0.75779350919764
C         3.42144606782358      -0.31180919024354      -0.10181028891689
C         0.30888980017211      -1.25251112800523       1.38230287652299
C        -0.65156439394178      -1.48481224953531      -0.58136835388512
C         0.69402277875254      -1.53884594810368      -0.76297117214704
C        -2.33870567812994       1.31679005626543       0.80772055906333
C         2.89690711538591       1.10987580523070       0.11929464162093
C        -3.23505298626146       2.38572523011409       0.18847476508845
C         3.68396306340232       2.12167151184835      -0.70929520694941
H        -2.67724402624462      -2.10830398501794       1.39157209951146
H        -1.94952294450842      -0.88189565357739       2.46454415445907
H         2.79555488862791      -1.08286659617470       1.82593075712116
H         3.11494975170212      -2.34057778564441       0.60102073027074
H        -3.96093421839043      -0.02880033887268       1.29257136346192
H        -3.21605004746664      -0.34159715583408      -0.27955822819737
H         3.32771489294748      -0.58938676725478      -1.15687572504222
H         4.48278556802646      -0.35961960482201       0.16111309915297
H         0.45764209562090      -1.11930592717015       2.43922044593738
H        -1.45750469399805      -1.56136786586482      -1.28958063793725
H         1.27515330015721      -1.67149566751428      -1.65832990325991
H        -2.12174763625451       1.57796747616668       1.84677108367071
H        -1.38852706526343       1.27910094450416       0.26774054693874
H         1.83997576213220       1.15408803890154      -0.15810835234076
H         2.97406896234250       1.36592245912955       1.17918667134949
H        -4.17956612722349       2.45634096772584       0.72980320455872
H        -3.44930774885810       2.15271954919803      -0.85619899132423
H        -2.73590503201638       3.35320577147941       0.23398977635631
H         3.59839709676107       1.89908287765842      -1.77448582666916
H         4.73961347390033       2.10559855319791      -0.43436919419452
H         3.29421663666881       3.12336819505920      -0.53056559423909
P         0.69093119890442       1.45929585283280       3.43495567376343
F        -0.49712531644976       0.29441918558530       3.67753803875534
F         0.91794902054011       1.57410868885381       5.03513065071922
F         1.81972873767503       0.21620762123200       3.35381813261204
F         1.86799765332196       2.54278350472968       3.12509725150499
F         0.45354197242049       1.25996377216002       1.78033212159135
F        -0.45185555495166       2.62064089707782       3.44833970989307
