31
C9H20ClN optimized with ADF in AMS.
N        -0.45896489454253       0.34044749386116      -0.26544902265023
C        -1.16653313820315      -0.74381157980918      -1.04449277307909
C        -1.52255464855276       0.79625710006802       0.72419378931450
C        -2.01409488713176      -1.49465089984001      -0.01297706947678
C        -2.20782951431767      -0.49434337229797       1.15868036065978
C         0.72153733250180      -0.23659515345533       0.50868050041215
C        -0.04576955634422       1.46543719792092      -1.18542651002392
C         1.93137439282805      -0.58788685884126      -0.33656269527303
C         0.61275378135610       2.63581268004340      -0.48877913251434
C         2.97363981820980      -1.27876555738557       0.54666614930887
H        -0.42493890870243      -1.35929745915243      -1.56968230837918
H        -1.79897071682635      -0.23264846911179      -1.78543840469893
H        -2.20263580018451       1.44756171471528       0.15199081285337
H        -1.01199425110311       1.35115267486886       1.55265554868517
H        -1.50776743969767      -2.41119844056828       0.32420751471282
H        -2.96880380271271      -1.79860095021011      -0.46634564628142
H        -3.26923048859904      -0.30814342414205       1.37576099610861
H        -1.74555242269446      -0.87034693407297       2.08359292571706
H         0.33248922059959      -1.13550040025483       1.01014862466645
H         0.95072031130904       0.51134829302619       1.30977163352927
H         0.61156894378682       1.01517035067912      -1.94546062331655
H        -0.97618067297193       1.77876318300770      -1.68660372553644
H         1.67054836473325      -1.25029569854911      -1.18255547635603
H         2.37870538270548       0.32610751367174      -0.76079752557510
H        -0.02545230571020       3.06706569377032       0.29473470043683
H         1.54940765901816       2.35841945610866       0.01146316709116
H         0.82723782157304       3.40357644357096      -1.24851023919450
H         3.25704041241340      -0.62906535600237       1.38878123399588
H         2.57914608765282      -2.21922145538316       0.96282020327750
H         3.87956440675062      -1.51525321398576      -0.03067051818774
Cl        0.60358715905651       2.00004121064986       2.89380288887387
