61
C17H24F18NP optimized with DFTB in AMS.
N         1.68223897907652       0.39936062130997      -0.69718733170247
C         0.80467918599780       1.60194034764457      -0.88011186872309
C         1.58864554435482      -0.46699081241545      -1.92206345240707
C         1.26789278407710      -0.35178287955438       0.53855819902796
C         3.11750698509898       0.85964746385174      -0.60665353903613
C        -0.64058397862082       1.25037804761191      -1.21646531199052
C         0.16236820679084      -0.86200800277073      -2.27578504032447
C        -0.71382336605069       0.37385682495472      -2.46536750993287
C         2.16099984511534      -1.53597001064015       0.90519806861036
C         3.46466807941393       1.68761075140846       0.62824662770046
C         1.59939379721712      -2.21912273774223       2.15102563202273
C         4.95871375918406       2.01550413153331       0.60462941673277
H         0.84634886750787       2.18696953970396       0.04058156875129
H         1.24025864818957       2.19017171204003      -1.69257925647280
H         2.03472629616458       0.09978830907972      -2.74276760723968
H         2.19672439662179      -1.35252275244198      -1.74522386111693
H         1.24598658868822       0.37079094200510       1.35799185792372
H         0.24746121617053      -0.70401329151491       0.37680353462831
H         3.73678840583480      -0.03413406571913      -0.64255661406415
H         3.31685123386411       1.44022801603574      -1.51043480712400
H        -1.12093741965776       0.74756966340178      -0.37285632182972
H        -1.17219858365815       2.19012157882669      -1.38808895846708
H         0.20687176528250      -1.43418016073889      -3.20584813762053
H        -0.26305119400972      -1.51302033665911      -1.50747452748100
H        -1.74862988778089       0.07419714465481      -2.64544147622601
H        -0.36632263447633       0.94246578203817      -3.33372849038627
H         2.19918038385635      -2.25850584203864       0.08807075592417
H         3.18107524239373      -1.20732219692095       1.10933900785507
H         2.88774504772354       2.61724128123741       0.64453156290570
H         3.24184639777757       1.13187178562294       1.54212528992701
H         2.23869384061613      -3.05975638595770       2.41563119141231
H         0.59113438339281      -2.59255807322317       1.96681868596694
H         1.56925767497464      -1.52455227767614       2.99134400116369
H         5.21340626937828       2.61626782673606       1.47682428879792
H         5.21472802996670       2.57461926863566      -0.29505947630744
H         5.54932875668371       1.10025676490331       0.62261806840290
P         6.23903401870515      -2.18724438485123      -1.34246753450465
F         7.46629566644269      -1.86252313944040      -0.25631296929811
F         5.11642669265262      -1.45341868314817      -0.26168541264763
F         7.27696903039782      -2.90043639066183      -2.43553549651440
C         6.62064708082173      -0.44400932357265      -2.16300147009785
C         6.06512859681442      -3.90227340699900      -0.41351472652851
C         4.65121071192764      -2.48190384191044      -2.55222578147905
C         7.96772809356494       0.24913912868428      -1.82748736722347
C         5.41655742616690      -3.91235315143773       0.99566862032018
C         4.71515953021458      -3.28693381211214      -3.87646872760978
F         5.67404577079399       0.48053122681921      -1.85152335970484
F         6.58414562449298      -0.59337896747539      -3.49749459945227
F         7.29652212337167      -4.41364721617137      -0.26979874643535
F         5.36189921745516      -4.77711740385063      -1.15709750838027
F         4.15954409718118      -1.26450529177077      -2.91317968179127
F         3.66179185350819      -3.04228589723857      -1.80858212723332
F         8.13817760762439       1.30715182597664      -2.62810432353819
F         9.00718555436339      -0.55486051180490      -1.98881373382579
F         7.95962683175493       0.70134346441577      -0.57259636512839
F         5.57094647116728      -5.10147513188720       1.57618218236177
F         5.94019103427252      -2.99432692558272       1.80026155127944
F         4.09872872517507      -3.67948692480856       0.91271016016699
F         5.46014983051997      -2.65825563798156      -4.77793477378846
F         3.47682644007188      -3.40071632532161      -4.38208649532984
F         5.19805503967936      -4.50913103819152      -3.71012263801799
