35
C9H20BF4N optimized with ForceField in AMS.
N         0.26677501050322      -0.10916997401345      -0.19498931511475
C        -0.59874066228152       0.70038307607776      -1.11156620452376
C        -0.49012900474994      -1.33115207037102       0.22929563881164
C        -1.96421934689078       1.07773219340321      -0.51292800934435
C        -1.87428685716234      -1.03519015405793       0.84159051137714
C         0.68114985889375       0.67358390464907       1.02100859102170
C         1.45795565228401      -0.54231495849097      -1.00202285458624
C        -2.72433373677422      -0.17357068815648      -0.08695179910040
C         1.54687451727836       1.91817870153168       0.75062996049815
C         2.53017659794092      -1.34157689650889      -0.23718312325023
H        -0.80259804075192       0.12880865460218      -2.04776998776802
H        -0.08490529532792       1.62662813924589      -1.44239962814321
H         0.08213389685652      -1.90399614980828       0.98907276632379
H        -0.64753635711562      -2.01411534832974      -0.63763175890432
H        -2.56012563518352       1.61183925319095      -1.28403797874392
H        -1.85036297796774       1.77537087109041       0.34174092017780
H        -1.77192760261408      -0.54579592296252       1.83220304390913
H        -2.40338502150035      -1.99729256283059       1.01391005266473
H        -0.19906819684383       1.02151691490507       1.59535606408121
H         1.23215960261557       0.02184358929882       1.73366168599554
H         1.13161690697211      -1.17680900598607      -1.85803978447070
H         1.95533957363910       0.33414991138210      -1.47286666644525
H        -3.66032904777016       0.12061768604373       0.43446477073235
H        -3.00370001284874      -0.76345832331982      -0.98747552803004
H         1.81160181378213       2.38698692207525       1.72183466336736
H         2.49938278435391       1.66206157067476       0.24716840234718
H         0.99786146113984       2.68014322965311       0.16308893820856
H         3.33273200980025      -1.63241298341310      -0.94751681161279
H         3.00613591559432      -0.73525432860904       0.55846833929562
H         2.12043635012526      -2.27685977526268       0.19175496120777
B        -1.25802557094164      -5.28590100692226       1.50841696419375
F        -1.92444894495106      -4.99639922231171       0.28792782614453
F        -0.11748563063600      -6.09035690824661       1.24621909000859
F        -2.13980679154194      -5.98261463597934       2.37649673981313
F        -0.84988765852596      -4.07507842504347       2.12585093315831
