49
C13H16F18NP optimized with ADF in AMS.
N         0.76002380084947      -0.52108301066062      -1.76405288304937
C         0.83828954292952      -2.03434764240870      -1.89124231158005
C         0.12064211839107      -0.34685964199110      -0.40239454077671
C        -0.47090724644125      -2.54537349295861      -1.28756323086091
C        -0.96904865347376      -1.41676401589005      -0.34472493964625
C         2.12486023941179       0.12859260943166      -1.80865057537656
C        -0.13142103907162       0.06257730988975      -2.82005468893890
C         2.88380785932521      -0.10488582280335      -3.09909549151408
H         1.71380766707950      -2.33712053481507      -1.29685341535699
H         0.97597688318038      -2.30684519516959      -2.94272767209684
H        -0.23004383479403       0.68885823691849      -0.30011004662307
H         0.91376650974609      -0.53771808459532       0.33617490421395
H        -0.29122581684610      -3.48705298434172      -0.74992576569716
H        -1.19836872121330      -2.75541310167924      -2.08234264607167
H        -1.93403089675330      -1.01586012523269      -0.68661906288100
H        -1.10882823503688      -1.75946890505235       0.69014356465004
H         1.95311540957391       1.20214295922448      -1.63046566479017
H         2.67664352085884      -0.27921121798684      -0.94733917974755
H         0.29260070683755      -0.14508296086128      -3.80356773006601
H        -1.11408072274207      -0.41474015746910      -2.77135054530934
H        -0.21148700254054       1.14267281125479      -2.64186882677774
H         3.85948767736668       0.39697483993024      -3.01454184804688
H         3.06976138963679      -1.17086653472914      -3.28481262673505
H         2.37122812754047       0.31276180563267      -3.97513373580097
P        -0.79063228296884      -2.74461666648397      -6.07198979065349
F        -1.05162929147467      -4.30825200073270      -5.56907684264315
F        -0.64497197784426      -2.26912936082068      -4.44399890990993
F        -0.91125021441380      -3.14252728750324      -7.67207931346250
C         1.15055904627454      -3.19286262864928      -6.11874562550615
C        -2.76832920080398      -2.55946817937796      -5.97242901826206
C        -0.45020571506082      -0.80811191320915      -6.51170959536159
C         1.56000367253476      -4.70213778251893      -6.14259306120190
C        -3.43663422198317      -2.47841310596877      -4.56406968483589
C        -0.49867413645564      -0.28227043959750      -7.98068710668254
F         1.84064028005202      -2.68905597421283      -5.01022488850252
F         1.74495671230103      -2.64614926049270      -7.22749813758027
F        -3.32405148264939      -3.67071810637275      -6.56412342568735
F        -3.26419160957161      -1.47511597689397      -6.66195079748293
F         0.81492108886045      -0.44024064342881      -6.05241453152919
F        -1.32480175736986      -0.00967292086083      -5.79658135900132
F         2.90893324809889      -4.79004779066929      -6.34987782364513
F         0.94814334663556      -5.38014856546408      -7.13179716986337
F         1.30767749899863      -5.31027121196703      -4.95507493064566
F        -4.78848650577305      -2.53205191818644      -4.69511986920142
F        -3.06371123199812      -3.49512218120661      -3.74918274450961
F        -3.14749524361509      -1.30459405981464      -3.92477133173666
F         0.47655296711930      -0.82852914269413      -8.73617663865923
F        -0.30045343832600       1.07268228120221      -7.96838296832043
F        -1.68685871618128      -0.51603272391321      -8.57075593983639
