36
C10H23NO2 optimized with ForceField in AMS.
N         0.00121928139836       0.00191305970719       0.00706977028563
C        -0.84745964087260      -0.25709813419255       1.22273069241972
C        -0.84562308181443       0.26447316139420      -1.20907431429104
C         0.84660824038907      -1.21588042608160      -0.25323966342040
C         0.85103119345573       1.21634346727724       0.26819538158922
C        -1.90927145919690      -1.36542687800557       1.07762974050796
C        -1.90260712667339       1.37764371768118      -1.06456822498456
C         1.90716419731338      -1.07372703443634      -1.36306467646772
C         1.91164563795323       1.06880776566779       1.37726917895038
H        -0.21154574376753      -0.55740923409196       2.08314111255624
H        -1.36543606612106       0.67104009430414       1.55025135415279
H        -0.20780901705602       0.56156217207548      -2.06925528560308
H        -1.36761143499043      -0.66139498174219      -1.53651704529622
H         1.36501330048590      -1.54461119398979       0.67421331351157
H         0.20828666625190      -2.07477140416816      -0.55277868435847
H         1.37003815120570       1.54441020308610      -0.65915902638405
H         0.21588632816091       2.07720394556965       0.56903858085010
H        -2.47978998917183      -1.43664511617446       2.02768572048244
H        -2.64142302291876      -1.14574751617466       0.27650559734606
H        -1.44583879988911      -2.35650982742261       0.90228313571427
H        -2.47243634323994       1.45146206692840      -2.01483885509093
H        -2.63608830739364       1.16127126627330      -0.26374256834920
H        -1.43496400152734       2.36672377748405      -0.88893109907910
H         2.47924321092015      -2.02304618180334      -1.43024061185313
H         1.44195598843478      -0.90334556244765      -2.35425056527485
H         2.63819572919771      -0.27041466978114      -1.14804976333434
H         2.48353917095885       2.01795715381985       1.44965338900285
H         1.44700886259048       0.89326526655235       2.36775448802882
H         2.64273813442123       0.26675081472692       1.15758337111065
C         4.15576954410005      -5.66380817075235      -0.82958172198359
C         4.72976043221118      -4.81153972608483      -1.91698486745050
O         3.98721926406304      -4.21755885546118      -2.68131648287502
O         5.93917582695903      -4.70814556266251      -2.04432659257188
H         3.53703674425590      -5.03774436473733      -0.15297891028090
H         3.52105590355485      -6.45826901141238      -1.27524253843131
H         4.96499773295154      -6.14171211022522      -0.23682444722841
