41
C11H22F3NO3S optimized with DFTB in AMS.
N         0.33088878230230       0.25981547034077      -0.16847824237891
C        -0.23277892463357       1.17346887569050      -1.22266322802594
C        -0.03028555001572      -1.15704137513795      -0.49299000322496
C         1.83249177567836       0.41289175337454      -0.21904714718800
C        -1.73268102831850       1.01253893452372      -1.42060415260555
C        -1.53099656464210      -1.35789144407721      -0.66642274803511
C        -2.07534988762865      -0.43725713822248      -1.75714046575142
C        -0.16801798663909       0.65373205137022       1.17366241585409
C         2.60868081922032      -0.31493281276546       0.87187905559991
C         4.10846813585045      -0.12229933932503       0.59870427272121
C         4.95592190678058      -0.90202649053624       1.59951820118939
H         0.28629919803341       0.93766879100991      -2.15180871618504
H         0.02449740683893       2.19520245956155      -0.93882266786681
H         0.35098086027658      -1.79125393716315       0.30950253433096
H         0.48536624868955      -1.40653433463065      -1.42294297423176
H         2.04172647614961       1.48419899082529      -0.18376625982273
H         2.14913116443410       0.03914957305378      -1.19313878349792
H        -2.01848099735838       1.66315281160762      -2.25081041028868
H        -2.28926590943308       1.33847135743003      -0.53691566074474
H        -2.05621860492961      -1.18127947587495       0.27696812742568
H        -1.69067215361559      -2.40236035257730      -0.94603049914300
H        -3.15825535381220      -0.55682984312274      -1.83664804860911
H        -1.62805081100344      -0.70526886703156      -2.71898562277389
H        -1.25403714548014       0.69306569524427       1.16972678427806
H         0.16316174587384      -0.07552027211391       1.90932653074957
H         0.23232375100516       1.63647143576914       1.41591062185961
H         2.37537943437005      -1.38389387192307       0.86485483526694
H         2.36658412792677       0.08089037177955       1.86298069021164
H         4.35044196969697       0.94295703845470       0.66112723286212
H         4.33348616166530      -0.45415131384625      -0.41852930950863
H         4.74841960924532      -1.97071656178245       1.52796797295391
H         4.74829998241050      -0.57521600664472       2.61991337161562
H         6.01293358759842      -0.73930600415803       1.39097395882946
S         3.00717241087972       1.28528787641318      -3.38147579292341
O         2.12661875700438       2.12089390913550      -2.57032476019195
O         3.78296548845471       0.33573738072676      -2.60316113344420
O         3.70220409766120       1.95919435256548      -4.44010290636784
C         1.77166064412816       0.17311651093187      -4.23449875414363
F         0.69163565370109       0.84660387082923      -4.63359350199702
F         1.32783178685947      -0.74434698571953      -3.33727820081756
F         2.26016797857485      -0.48830798458498      -5.26842435038046
