53
C15H32BF4N optimized with ForceField in AMS.
N        -1.08922196327330       0.82510739329826      -0.18767614265557
C        -1.57440091594616       1.86082973972618       0.78261431811415
C        -2.06515038129570       0.73699083898690      -1.32193751288199
C         0.21227604909134       1.29414986643785      -0.77739544905625
C        -0.93435810387976      -0.49264685844445       0.52060431757928
C        -3.02002657844038       1.63644184940974       1.27287936170679
C        -3.51083871386728       0.44666128759598      -0.88598799614379
C        -3.99397758082039       1.50099440246257       0.10519366539085
C         1.41446174938297       1.36578246786277       0.19907104162804
C        -0.34691303241512      -1.64995913421518      -0.32410842341902
C         2.66307799169590       1.88725728896097      -0.52670758639380
C        -0.21091475507512      -2.91876668818700       0.52869803239690
C         3.87976221641538       1.92663735316557       0.40594207973639
C         0.36724420996196      -4.08120258177223      -0.28593970948767
C         5.11481537906548       2.44304011511955      -0.32922300692759
C         0.48236636010813      -5.34294161879457       0.56653590070370
H        -1.53268141358650       2.87525454666119       0.32298623650965
H        -0.92851841438373       1.89316333541804       1.68670319308217
H        -1.75645005258418      -0.02588304071956      -2.06738040083412
H        -2.08504075077283       1.70075517840845      -1.88261080613959
H         0.08035850026810       2.30961661633650      -1.21877059256856
H         0.50155916030506       0.64786350166043      -1.63617931755836
H        -1.90516748326415      -0.84330635185946       0.92071404805474
H        -0.29920534657794      -0.36392051127872       1.42044876980485
H        -3.32694408563103       2.50743601959221       1.89247078141954
H        -3.08318332484885       0.74343460297903       1.92917528856025
H        -3.60429754622515      -0.56998026238348      -0.45191331919046
H        -4.16768694250453       0.47270618237439      -1.78300674800556
H        -4.09159540603683       2.48119504766302      -0.41253009335305
H        -4.99718777059501       1.21543935197787       0.48972673432251
H         1.19118680673524       2.04846602767181       1.04443359019299
H         1.64991862781920       0.35968589255876       0.60240953125503
H        -1.01324906073093      -1.88024471396172      -1.17986429565887
H         0.65861372071678      -1.38646744093017      -0.71072519199631
H         2.46301381497814       2.91200995610688      -0.91135108702150
H         2.88899320908367       1.22364918746280      -1.39093714787304
H         0.46024948871077      -2.71108240340659       1.39077359881586
H        -1.21205187733109      -3.20725168805129       0.91975933926596
H         4.09149712321619       0.90479441860408       0.79104407617965
H         3.66946295565734       2.59313082929828       1.27116083224917
H         1.37704132502446      -3.80783043502770      -0.66367644164179
H        -0.29079708392471      -4.29394891034894      -1.15700293184988
H         5.98258832613468       2.46163904329505       0.36337848762190
H         5.35946571583853       1.77934022846853      -1.18636117180970
H         4.93780292372845       3.47401041293649      -0.70424142105293
H         0.91030329676296      -6.16665680977556      -0.04261928926509
H         1.14859489653694      -5.16165212319730       1.43722556646833
H        -0.51994155973700      -5.65475470861327       0.93116005037013
B         1.00498404549098      -0.58092345521881       4.08656243742530
F         1.46933013245586      -0.58779349716661       5.42848466040299
F         0.23226282617104       0.58912180752970       3.86018351996110
F         0.20197230951466      -1.73021163143104       3.85908174684268
F         2.11512263067746      -0.59474837584619       3.20021295342358
