42
C12H21F3N2O3S optimized with ADF in AMS.
N        -1.54055716876186       1.18868168155328       0.14348068671354
N        -2.92020695359853      -0.47220941286607       0.37443288980520
C         0.89371322505144       1.52845773645807       0.43251689085940
C         1.41240674467836       0.18511941192568      -0.06872959240329
C        -0.37823781125366       1.98388508375579      -0.27666248547569
C         2.61268360546058      -0.31199876620589       0.73236270461877
C         3.10565821068977      -1.67350617969828       0.24767842507846
C        -1.89914377438501      -0.00353664715119      -0.35232349004207
C        -2.33594422831324       1.46880920091221       1.23479002018497
C        -3.20434575029855       0.42682614391326       1.37541271776559
C        -3.59066978254960      -1.76094687592646       0.15534152657872
C         4.26889654370279      -2.20709055536645       1.07938553637219
C        -4.74378048628866      -1.63398215446538      -0.82645937188781
H         1.65486749844009       2.31554279104581       0.28731951843817
H         0.68716225507165       1.45380295465276       1.51429441084734
H         1.67892332731233       0.26608310460032      -1.14160841029963
H         0.62627758519042      -0.58227807482659       0.03264691916126
H        -0.62670497066830       3.03258935071655      -0.05294402758507
H        -0.29172668100888       1.88655649907001      -1.37031239510893
H         2.30381964501685      -0.39715193937535       1.78960371003244
H         3.43551282366701       0.42757826947610       0.68668671190281
H         3.40675987406753      -1.59889395734266      -0.81456113934975
H         2.25933957503454      -2.38183328243963       0.29250976733677
H        -1.42225380230437      -0.51867885761281      -1.17532197989634
H        -2.18388652654398       2.35665014128374       1.83437005826833
H        -3.95432081893544       0.21982749667074       2.12713594818378
H        -2.80900177529811      -2.45979681693392      -0.17637611852645
H        -3.90177833943421      -2.10894385547313       1.14976925674989
H         3.97125180634423      -2.31139019670104       2.13404857251747
H         5.13421221317436      -1.52509689177509       1.03797129164247
H         4.59794856893846      -3.19608260851603       0.72396336594114
H        -5.50416991929442      -0.92514077431719      -0.46568660787885
H        -5.22234949693228      -2.61623294598674      -0.94880802398357
H        -4.39647078395379      -1.29831042758781      -1.81529076195494
S        -0.82530867485975      -1.98222598518393       2.35346170491144
O        -0.29347467449777      -0.64054959438760       2.66029492565999
O        -0.58401423706812      -2.43343314648354       0.96097044688388
O        -2.18234971584783      -2.25544872846851       2.86369296513373
C         0.26047443243255      -3.13166710661001       3.36219999831715
F         0.14675286935785      -2.87033645582913       4.69075550491613
F         1.57183517855693      -2.99076494429654       3.02212697462587
F        -0.08312842359139      -4.43072249680734       3.15861320214549
