49
C13H25F2N3O4S2 optimized with ForceField in AMS.
N         1.34303951964645       2.18723279331948       0.08315540197699
N        -0.85881035369040       2.37168697197241      -0.16710554496685
C         2.72527575889693       1.79304536228881      -0.17871735109750
C        -2.19746337043712       2.20673683755768      -0.73176499299519
C         3.01183509914886       0.39069799142953       0.37635170127941
C        -2.47139490125048       0.73539244949696      -1.07994096754427
C         2.09808714138962      -0.67560908489387      -0.24818589511252
C        -2.40012877034616      -0.17239128812506       0.15720759809090
C         0.31037287915354       2.09600469655427      -0.77627840285960
C         0.81213823048266       2.54033124437345       1.27090948557902
C        -0.55335753408146       2.66255145776089       1.11370496706471
C         2.47625476174112      -2.08029358192057       0.23056863878634
C        -2.59219242138792      -1.64412378889383      -0.22257115558300
C         1.51142764278593      -3.12559386943309      -0.32199739857102
C        -2.49950039810110      -2.54239277497534       1.00770859815301
H         3.41300213477729       2.52777614123346       0.29312356029987
H         2.92252461633537       1.80529260209791      -1.27315905275556
H        -2.28312567777621       2.82476827736734      -1.65130831186420
H        -2.96428131220835       2.56531226673735      -0.01043497917574
H         2.87928707548728       0.39656227818238       1.48041885266585
H         4.07251169965896       0.13936172667090       0.15795054452956
H        -3.48527942783387       0.66068976411276      -1.52979556891546
H        -1.73571284806086       0.39415358599900      -1.84062218126831
H         2.17779832465991      -0.63122968561309      -1.35675534004506
H         1.04365979336827      -0.47341524757310       0.03856402014070
H        -3.18748371787096       0.13167860279167       0.88138421965757
H        -1.40954437740218      -0.06196757514582       0.64811968812648
H         0.40113174539165       1.76798820776356      -1.80421196557831
H         1.36891066068464       2.65484423509555       2.19165308549875
H        -1.27389493060363       2.88420177694363       1.89000256246413
H         2.44805034861043      -2.11903495775094       1.34117349722297
H         3.50713492950201      -2.32465264478240      -0.10594724949280
H        -3.58598873987822      -1.78449931383849      -0.70027499231831
H        -1.80620471879420      -1.94824789534317      -0.94786372470622
H         1.53272511944418      -3.12283441182276      -1.43246127466474
H         0.47772224937709      -2.91544015876567       0.02366656267196
H         1.80586525696449      -4.13326318141937       0.03888070741729
H        -3.31554091909112      -2.30154928818577       1.72145508041245
H        -1.52040164081402      -2.40536637032939       1.51422207669027
H        -2.59411981450054      -3.60553426142100       0.70240870511763
N         3.67990296509503       5.54229138683428      -2.03291235437062
S         4.84810420877324       6.14952076063629      -1.06078669530567
S         2.10167261744099       5.59316719711257      -1.60293367231988
F         5.16601390090163       5.05665238705165       0.16727604940152
F         1.50452295114203       7.13345924363118      -1.87496638809285
O         6.10048881782805       6.37690477036038      -1.85918520068798
O         4.39013187986641       7.44613251547920      -0.45380294860577
O         1.95528217241697       5.26602049631953      -0.14353203529322
O         1.32308225845777       4.60846602015866      -2.42800464145673
