16
C6H8ClN optimized with DFTB in AMS.
N        -0.64610101654927       0.00793044375602       0.00777858946310
C        -0.01071165856287       1.19704732531612       0.01584509675234
C         0.04186326552280      -1.15149159218977      -0.00349648137621
C        -2.10840874760482      -0.02382241782799      -0.03199295543283
C         1.36383159265911       1.24749808807103       0.02955625075397
C         1.41718074662207      -1.13979648517112       0.01130393148990
C         2.10446426145114       0.07001404802026       0.04198847154060
H        -0.63545868625163       2.08266826272944       0.01679640815581
H        -0.54256452936748      -2.06408506190898      -0.02011516457739
H        -2.46316277877108      -0.93194304196436       0.45168560987508
H        -2.50261711698485       0.84897972105551       0.48511258038448
H        -2.43498846345144      -0.01149561052391      -1.07288512168563
H         1.85785737617796       2.21114865047973       0.03614695409235
H         1.95754847803091      -2.07825053172259       0.00003110888119
H         3.22573793003626       0.08002503204274      -0.00658840749055
Cl        5.04686820434320      -0.02054840116213      -0.43129273402621
