28
C6H11F2N3O4S2 optimized with ADF in AMS.
N         1.03467680583820       0.59719677456112       0.24709704479184
N         2.46475187545842      -0.42771649852363       1.51755327038731
C         0.17603492100833       0.92399236752424      -0.89978489158269
C         1.84226823552282      -0.46576933048298       0.33259141846318
C         1.16090332241593       1.34494682208117       1.39686032125575
C         2.06121527139879       0.70224930263800       2.19394944229391
C        -1.27969111980741       0.57733390274170      -0.63570585140348
C         3.50161206101673      -1.36354061456855       1.94796018182450
H         0.32188906146891       1.99442453412203      -1.10086168385955
H         0.59119130174921       0.38273531301781      -1.75990740741732
H         2.01615749856649      -1.19108786036414      -0.45067026422663
H         0.64170486222152       2.28546222352496       1.52752980364577
H         2.48964149071366       0.97734269242927       3.14862522142980
H        -1.40458564787334      -0.49878257513731      -0.44586081434239
H        -1.87779722355933       0.84439374739726      -1.51922927335777
H        -1.67761709163598       1.13357472203892       0.22581493049304
H         3.05871210366014      -2.35319819273839       2.11996962876073
H         4.28260149513587      -1.40093919529317       1.17839511667157
H         3.93870505654195      -0.98462294026369       2.87724182340996
N         5.11153527382478       1.79574663402278      -1.65695856533164
S         3.62074501375937       1.71824160474277      -2.21603946588332
S         5.54971053176517       1.11803806744941      -0.27555437154824
F         2.73575854521764       2.63629336732750      -1.11845556153565
F         5.41219649652708      -0.53383008156081      -0.58380445278049
O         3.53783521246744       2.47385945845982      -3.44469245203741
O         2.97338561134291       0.40948535446884      -2.12462582752727
O         4.62696922087315       1.29575505116832       0.84050003163918
O         6.96728344438155       1.32520079041679      -0.09166717463270
