44
C12H23F6N2P optimized with ADF in AMS.
N         0.91528402664932       2.01119850423659      -0.19499391968045
N        -0.85373422358267       1.30030093936384      -1.23138072927064
C         2.33264290401877       2.29148038930327       0.10555892096996
C         2.72093276930281       1.76940765275350       1.48596084137991
C        -1.70302651231159       0.62468768507706      -2.22867855992194
C         2.65245846409108       0.24410640950505       1.61569046596451
C        -2.34358498807584      -0.63570565276689      -1.65257939528329
C         0.47396590893451       1.44880537177261      -1.32722097031997
C        -0.15943753292505       2.22789629251874       0.64603485968841
C        -1.27111333156560       1.77847127457176      -0.00472580424880
C         3.84260586387338      -0.47218129287087       0.97569219750166
C        -1.32305949790692      -1.67618602180126      -1.19926771133892
C         3.74467829318799      -1.98908537573139       1.10806805780375
C        -1.98000722547463      -2.94172961263064      -0.65941752668869
H         2.47748875404241       3.38131475256252       0.03154194487250
H         2.91221342640151       1.79844563971493      -0.68839410313170
H         3.75274369371844       2.11369185141498       1.67957406350262
H         2.09395944455363       2.26048508605287       2.25103864705496
H        -2.45636688335738       1.35320746071636      -2.56787109791244
H        -1.04004869643550       0.36942346073954      -3.06705164765315
H         1.71762646086538      -0.13167698080163       1.16095252667115
H         2.60393497774320      -0.01814703993227       2.68758102640194
H        -2.98752497085305      -1.05581663442702      -2.44649258445363
H        -3.02004322771408      -0.36839849634956      -0.81863435616655
H         1.09178603120139       1.12926892476315      -2.16198279265651
H        -0.04636982095978       2.67283568625426       1.62576356234066
H        -2.30971628183035       1.75163492485456       0.30021646400959
H         4.77216660191470      -0.10916706619831       1.45428246026424
H         3.90873281978161      -0.21796400941275      -0.09448035258829
H        -0.65670657229214      -1.92545815452400      -2.04069635412087
H        -0.66859782197296      -1.24129560833515      -0.42505193791163
H         2.83927263330356      -2.35705918926584       0.60315670961589
H         3.71029172084276      -2.29460344371936       2.16706289156732
H         4.60437268626356      -2.48189742341146       0.63139470304661
H        -2.61367138696273      -2.72648224951478       0.21672746467713
H        -1.21595019022187      -3.67233072310652      -0.35622405746290
H        -2.61223572624331      -3.41768565780258      -1.42601145794968
P         2.42455193555348      -1.20543782589046      -2.82294767422340
F         3.08559741412989      -1.30058863913158      -4.30838039844390
F         3.02374417282790       0.36241926482927      -2.64371061988420
F         1.03227945659643      -0.52251902649445      -3.49213227002343
F         1.72250717070443      -1.03655682251379      -1.30996270253550
F         1.75228977336847      -2.69305723868498      -2.95645393049956
F         3.77572802391484      -1.80935395168735      -2.12682049836278
