39
C9H16F6N2O4S2 optimized with DFTB in AMS.
N         0.24273442274512      -0.25334504997560       1.12643827618886
C         0.13689540470680       1.23983370661858       1.00944065974235
C        -0.62617548601411      -0.92356295558707       0.09739273019991
C        -1.30201237747380       1.73600404716483       1.08197429948241
C        -2.06832152028796      -0.43431694980914       0.10978628796871
C        -2.15501872563495       1.08500409037457      -0.00336597957929
C        -0.10800927275481      -0.69717625864601       2.50235966080126
C         1.65312184366571      -0.64884484102424       0.86777288418232
H         0.58219673362862       1.51443212576941       0.04831299448222
H         0.73880555209414       1.66778394176844       1.81458693345489
H        -0.58910493650343      -1.99637711352357       0.30017712499969
H        -0.16545223962989      -0.72524335065742      -0.87520983959535
H        -1.28063645452274       2.81958962446245       0.94179992729689
H        -1.73283679186530       1.53782916986863       2.06494426304197
H        -2.56886671885656      -0.76554446644189       1.02095525514434
H        -2.57363448230698      -0.90294385261486      -0.73846790895532
H        -3.19411258067564       1.39649601927228       0.12226067913737
H        -1.81290901405742       1.41080105818444      -0.99179947812582
H        -1.11837614798577      -0.37784342369360       2.73954601673054
H        -0.05437518003530      -1.78268245299161       2.54984351210120
H         0.59152028346367      -0.25115845407433       3.20635542036225
H         1.94106722206659      -0.33120967509076      -0.13263611006553
H         2.29463178096992      -0.17194735213628       1.60655001059071
H         1.73369722306424      -1.73107962860488       0.95111886639754
N        -3.24762083039315      -0.44368280132270       3.02612354485018
S        -3.82689538340582       0.70754543241954       3.98773804698298
S        -2.94297159035994      -1.89852659192141       3.63681233253716
C        -2.46137297466285       1.20472790507526       5.17926177548636
C        -4.55360453848647      -2.75707102242063       4.06796004828654
O        -3.95138766444072       1.87204597371815       3.14581171885464
O        -4.93689987676345       0.31254853868518       4.81145949571969
O        -2.16031282769517      -1.88216100954962       4.85159910508177
O        -2.40983416890414      -2.65772183153911       2.51963005142605
F        -2.59964257442853       2.48344944617070       5.48791141130884
F        -1.27735146201525       1.06164548867950       4.56054322749775
F        -2.45243872332873       0.49337369180616       6.28341424780273
F        -4.39817874381242      -4.05624652888165       3.86974253230208
F        -5.52234044582985      -2.31800861235727       3.28378075504799
F        -4.87072178357361      -2.54783790797449       5.32669127673110
