24
C6H8F2N2O4S2 optimized with ADF in AMS.
N         1.11461379680162      -0.20649379920548       0.82771800886201
C         1.43107142064156       1.10574471695671       0.76683090596707
C         1.72461604613126      -1.10403844915991       0.02266657861795
C         0.11764912688200      -0.68970582627980       1.79990976573619
C         2.34361364053580       1.56616332604726      -0.16093611914635
C         2.64537766179935      -0.68900311262161      -0.91754670772915
C         2.95868261430189       0.66279882378798      -1.02084334728411
H         0.94920368629023       1.75298542963951       1.49541416223177
H         1.46604093044254      -2.14751855611176       0.18818546904759
H         0.55555501795246      -1.54447930518360       2.33063846189420
H        -0.08931074215218       0.10825908100411       2.51853166499882
H        -0.79529003725075      -0.96847948210711       1.25702123046367
H         2.60755838409211       2.62305248794511      -0.16248021383385
H         3.13948504638909      -1.43606101385692      -1.53733440673000
H         3.71010380486095       1.00582602173340      -1.73184604318793
N         4.14515664951599      -0.36483672232029       1.82645970294026
S         4.94881214933415       1.03151473864990       1.83254033080022
S         3.53797575681377      -1.02088593363062       3.14998078232585
F         6.26612662543530       0.74824868521771       2.75936171370425
F         2.37462768099915       0.09332157415226       3.64384984055803
O         5.46151801702573       1.22421154586809       0.48587544272325
O         4.25462219284999       2.12469960214657       2.49353105438616
O         4.41107594421073      -1.13708611499502       4.29540447860341
O         2.72184645779727      -2.15207493527648       2.71830095325070
