58
C18H34F3NO2 optimized with ForceField in AMS.
N        -0.01570052445593       1.99045991210810       0.00341861962278
C        -0.69271444880657       2.89715651235776      -0.97494401939340
C         0.64366159361579       2.90477297696750       0.98670369673966
C        -1.03109805646741       1.14618934010482       0.71446973188161
C         1.01573542241260       1.16955969699390      -0.71177502798652
C        -0.21793583679192       4.31494187027195      -0.71838519190701
C         0.13673266295352       4.31326559747751       0.74174943252523
C        -1.77184151884439       0.12912765368786      -0.18751762790028
C         1.77704555000936       0.16480712576058       0.18639723728061
C        -2.87437103016778      -0.59019282811545       0.60024442270914
C         2.88994322904845      -0.53502733161707      -0.60414241844082
C        -3.62514463161518      -1.59554216381716      -0.28111605194781
C         3.65006863436233      -1.53536673360221       0.27461118769021
C        -4.69071088044406      -2.34348011154799       0.52933492636251
C         4.72474374438505      -2.27082937347683      -0.53459205842807
C        -5.44550453579171      -3.34448761526021      -0.34040228496010
C         5.45882435810311      -3.29333023890098       0.32769915450308
H        -0.49951525544820       2.62285901162419      -2.03696213647293
H        -1.79999359426991       2.90094474176528      -0.85032033828285
H         0.45978150855532       2.61840725781689       2.04720068607901
H         1.75019434024402       2.93432661023491       0.85886288881280
H        -0.55713273732822       0.58929664511826       1.55260391706362
H        -1.78999373031636       1.80662710894756       1.19532391302672
H         0.55189327178480       0.60629864383564      -1.55132571848509
H         1.76115167672812       1.84659965755218      -1.19061799724997
H         0.68866944723844       4.52631335985750      -1.32748746555108
H        -1.00555965828656       5.06587350299072      -0.94551246734887
H        -0.77429020953392       4.49907259434820       1.35258553023795
H         0.90722953845706       5.07996999239542       0.97491002478255
H        -2.22687797957180       0.64074960528291      -1.06138101477668
H        -1.06248247111816      -0.63728280174389      -0.56318271653996
H         2.22566635658267       0.68326188399509       1.05956822911672
H         1.08210986675013      -0.61405235569146       0.56321507565564
H        -2.41599890221413      -1.12659570063734       1.46044584245318
H        -3.59583655074665       0.15852568473047       0.99537189138575
H         3.60259135162191       0.22481722730447      -0.99404430887284
H         2.43975306249404      -1.07291496247774      -1.46771688757955
H        -4.11293880779870      -1.05472981253541      -1.12203637435145
H        -2.90337362363026      -2.32893553935372      -0.70354295751484
H         4.13160150178432      -0.99215596808690       1.11767713422827
H         2.93481551164873      -2.27669634952153       0.69421234385918
H        -5.41724894878981      -1.61748591148950       0.95474575515092
H        -4.20762196900072      -2.89045307447280       1.36805188726169
H         4.25390836230027      -2.79919320100708      -1.39204241559378
H         5.46074812862092      -1.53878632225570      -0.93275783567344
H        -5.96519296309830      -2.81998428848940      -1.16995298923967
H        -6.20345502385276      -3.87315746783936       0.27574881692575
H        -4.74425090544955      -4.09561029228815      -0.76182837449117
H         4.75292935094068      -4.07103521205903       0.68832133594604
H         6.25240426462969      -3.78480742643966      -0.27425782436262
H         5.93014653919419      -2.79518147201907       1.20094172846424
C         9.45400313636636      -1.22821921602809       0.25301418885100
O         8.36522820850878      -1.72714174586959       0.48620979900251
O        10.47078675641754      -1.84899156510059       0.51765813681588
C         9.54959601584865       0.13939101275680      -0.35506409635726
F        10.25139719776655       0.97433968345466       0.49474414318636
F         8.28783774340711       0.66835633919719      -0.56595255395614
F        10.21299139125845       0.06077749230560      -1.56555906525637
