59
C17H21F18N2P optimized with DFTB in AMS.
N        -1.18821184509188       0.53787607639111       0.72581921642526
N        -2.70350252728951      -0.96428888789495       0.43982903647328
C         1.25684666294558       0.74619370401372       1.03309795472981
C         1.66825300888439      -0.48150178705628       0.21658839672674
C        -0.02633194443851       1.39601823439982       0.51015986661434
C         3.09947733478289      -0.90415939091977       0.56150408131096
C         3.53230522847963      -2.11246248874525      -0.27264217094850
C        -1.62160365328291      -0.40998518761127      -0.10422784567535
C        -1.99255120738082       0.56863204549762       1.83097163621506
C        -2.95528650095606      -0.37263562707052       1.64499600352576
C        -3.51128001132430      -2.01671471480613      -0.17142480152432
C         4.91824618058680      -2.59904500550332       0.14449829325212
C        -4.64425174670664      -1.39755148248176      -0.98085897285219
H         2.04156391689639       1.50661477393750       0.97610369788550
H         1.12467845575814       0.47389774910387       2.08235814007904
H         1.60289874638095      -0.24627210022131      -0.85270984467920
H         0.98180514883024      -1.30864176268829       0.42365995747834
H        -0.21841897029913       2.33678749395148       1.03211795605087
H         0.04871265096979       1.59282064548595      -0.56316964504552
H         3.15243655233790      -1.15260799211967       1.62480034437736
H         3.77983771205079      -0.06449833445793       0.37858761587758
H         3.54065059850615      -1.84029796951879      -1.33436552594184
H         2.80426364285084      -2.91766292450290      -0.14054672473003
H        -1.18012707079857      -0.67628700198318      -1.04893698920923
H        -1.81711651401813       1.24715850912213       2.64718419002934
H        -3.77279611846238      -0.67912960142761       2.27286244953654
H        -2.85465994449216      -2.61627851984549      -0.80520681746479
H        -3.89965637538281      -2.64342878296201       0.63324418122471
H         4.90947051157927      -2.91587697270143       1.18753936913020
H         5.65649454465237      -1.80348717270125       0.02831068305386
H         5.21574699183455      -3.44681383491256      -0.47219876246039
H        -5.28605490365064      -0.79456786092967      -0.33931913090717
H        -5.23859154991144      -2.19382130305916      -1.42612788711247
H        -4.24614446996280      -0.76643307560317      -1.77504902007313
P         0.43536200028376      -4.67592740125690       2.45948675463852
F        -0.59247835849146      -5.66222136126538       1.59575424147910
F         0.99420910087499      -3.94669492945734       1.03860570697987
F        -0.16655613150978      -5.28349321302622       3.89961984989638
C        -1.11042849762870      -3.43049573772551       2.36412049082589
C         1.77899404484967      -6.14405901514232       2.31408762136617
C         1.68617295610550      -3.52814988119001       3.54856816311026
C        -2.36454460778033      -3.74967207312807       3.21538776181116
C         3.26233807973287      -5.88887987816767       1.90327004674168
C         1.33305266048865      -2.26205979095696       4.37669024034680
F        -1.55575784303675      -3.40740748993465       1.08025583982949
F        -0.79116639979247      -2.14008868494316       2.63853999380019
F         1.33825436535590      -7.00901114293779       1.38251152394199
F         1.82700923111967      -6.81488845137128       3.47647986261592
F         2.70193702775293      -3.14150107689270       2.74136863326861
F         2.20987004419132      -4.38873647798514       4.44499331436819
F        -3.36577517929803      -2.90036629808495       2.85679910743637
F        -2.15956062725522      -3.56876189425987       4.50998724003894
F        -2.81597264056666      -4.97526308752759       3.01279853364981
F         3.82318394237206      -7.05367500323756       1.56657805051884
F         3.35124006269180      -5.08669380804752       0.84146350439341
F         3.99277722982767      -5.36842726217768       2.88166153773862
F         1.28185200908655      -1.17155632204388       3.59614435578675
F         2.26601768159010      -2.03275828739489       5.29878419113867
F         0.16490740395798      -2.37422073302452       5.00353006650581
