40
C10H22F6NP optimized with DFTB in AMS.
N        -0.52011874394349       0.03853204822123       0.17037884901228
C        -1.51713192402517       1.09044181990406      -0.21883563491619
C        -0.87383309089835      -1.25694465599371      -0.50516264755428
C         0.82380372785734       0.51251310643508      -0.32119274373214
C        -2.95840663097617       0.68612708598243       0.07479683939153
C        -2.30108699854899      -1.70047624434624      -0.22208757741589
C        -3.30561082575614      -0.62649140518124      -0.62622453443079
C        -0.48079478527173      -0.10566671334636       1.65147242764996
C         1.99189599934402      -0.42923393457108      -0.03626756556455
C         3.28289701909926       0.17761649294906      -0.59775784478631
C         4.47259923010334      -0.74052514109893      -0.32483349100067
H        -1.39512841023536       1.26529927304836      -1.29171719560966
H        -1.25457935325960       2.00464499966670       0.31938693010641
H        -0.17740460828662      -2.01527958512555      -0.15130414264050
H        -0.72797390373121      -1.09907888237434      -1.57791946794293
H         1.00290657080388       1.48354381794682       0.15033082630845
H         0.72706907995330       0.66496781981836      -1.40004503374956
H        -3.60272931246505       1.49105594848642      -0.28887101717017
H        -3.11860924109503       0.59282584642108       1.15179257563947
H        -2.41596262250576      -1.95218482420399       0.83360383611363
H        -2.47021434513218      -2.61498349225465      -0.79513787400724
H        -4.31467031934887      -0.93574837582809      -0.34516177109849
H        -3.28287504616338      -0.47944588629284      -1.71136539230848
H        -1.45937407314584      -0.40151989310690       2.01615553886338
H         0.23438111963013      -0.87852625369496       1.91604744939289
H        -0.19068907127341       0.84880531691958       2.08744522179665
H         1.82116059879334      -1.40269731498232      -0.49909227746054
H         2.10643984257798      -0.58709376888777       1.03736841770890
H         3.45928689658322       1.15537543178536      -0.13618114658377
H         3.17658256601534       0.33060608918309      -1.67730734751302
H         4.31722451854506      -1.71360633419936      -0.79108753166160
H         4.60282174947921      -0.88629940781430       0.74765946225364
H         5.38266340026541      -0.29942747573826      -0.73088952532275
P         0.04811777703388      -3.94144674670718       2.03056909329975
F         1.13595449618460      -5.07043617625448       1.60149600412343
F        -0.65622956559264      -4.02864938234166       0.52280075263562
F        -0.98605690550129      -5.05544478796110       2.60053809190092
F        -1.04808457472756      -2.72142499909982       2.41025497432163
F         0.74377072015916      -3.75004868799449       3.49258774556341
F         1.07331764415540      -2.73650083616799       1.41351985278757
