28
C6H11F2N3O4S2 optimized with ForceField in AMS.
N        -0.52665374792871       0.18695690615244      -0.35855099140448
N         1.65832170715622      -0.08094047445200      -0.04568448422800
C        -1.92575652190581      -0.09770468986194      -0.66735303943403
C         0.50310119570528      -0.68146749543592      -0.39199792467362
C        -0.00529420968148       1.37172294063191       0.01969113759118
C         1.35143900699103       1.20537066622426       0.21125070400890
C        -2.73878131593780      -0.20476448941643       0.61637930407122
C         2.97724522613930      -0.69386698561435       0.04788172708631
H        -2.33951654758922       0.70956168548924      -1.31022746258791
H        -2.00518834579621      -1.05677397352901      -1.22459566888708
H         0.41145401449959      -1.72848447129821      -0.65258340342261
H        -0.56746394321438       2.28784618632561       0.14614415926865
H         2.05873843680331       1.96452150778805       0.51863022877946
H        -2.34183744875776      -1.03222303633656       1.24167726456597
H        -3.80018838650218      -0.41962097338783       0.37257813954863
H        -2.68607254417653       0.74741270794537       1.18603123494079
H         2.92016359664553      -1.77932811373391      -0.18312779577265
H         3.66656601384350      -0.20753654688437      -0.67416160189203
H         3.37560087725854      -0.56682858989079       1.07677284469191
N        -2.57483768738927      -2.37840209022191       5.34556704190773
S        -3.72233581402219      -3.27621780653578       4.60017794003550
S        -1.37640231915658      -1.65071759295549       4.50150206265991
F        -3.06929555988650      -4.75512359641882       4.16511046679765
F        -1.99026978801821      -0.29932553284404       3.72928866814758
O        -4.87342573168371      -3.49923181457024       5.53942819440339
O        -4.20561732889326      -2.57207992370511       3.36311875757818
O        -0.82132592573649      -2.59675110353967       3.47343754495974
O        -0.28521974856604      -1.22650970492449       5.44255038635971
