56
C14H28F6N2O4S2 optimized with DFTB in AMS.
N         1.04056164074290      -0.65518593037666       0.35089133737804
C         1.15375716012019      -0.70932792746831       1.85780943774603
C        -0.33416067339768      -0.23861619880959      -0.08687148484513
C         1.32652050489733      -2.03177249424302      -0.18949920011818
C         2.03715916057405       0.35332864461634      -0.16697774416555
C         0.05532111591502      -1.48756089153921       2.57996002955644
C        -0.82177848476040       1.09575852582296       0.47794863973343
C         1.26137068957279      -2.17423749562313      -1.70757190501450
C         3.50604443075634      -0.04482853753516      -0.02887406372642
C         0.31989312810736      -1.42402171720102       4.08533752260208
C        -2.25057196857473       1.35244859120438      -0.00098861048918
C         1.78963903987004      -3.55937780269558      -2.08646584555143
C         4.38955378227000       1.14509731273022      -0.39957597440855
H         1.17799602277106       0.32222629651784       2.21642677383735
H         2.11688579975114      -1.16843641338127       2.07866094310816
H        -1.01936292978354      -1.04009756734449       0.19835796206608
H        -0.31659255640017      -0.17744098576243      -1.17736759373458
H         0.61079061606957      -2.71177809990706       0.27464725603898
H         2.32196460185635      -2.30255503008121       0.15978717273186
H         1.86074755727597       1.27799937027237       0.38738705240467
H         1.79678780439889       0.53511395234775      -1.21782478379269
H        -0.93138862909880      -1.06619138782813       2.36987016834687
H         0.05966658129867      -2.53299230500547       2.26463858843275
H        -0.80773401723818       1.08508613129565       1.56956111292651
H        -0.17835299493953       1.91080370465134       0.13739451886252
H         0.23312069429050      -2.07077537758392      -2.06604771735990
H         1.87191353566275      -1.41238712188433      -2.19880816058050
H         3.72762265009827      -0.34688327674445       0.99437176796018
H         3.74022262290977      -0.88434975705097      -0.68601026362701
H        -0.46161804397493      -1.96803625963184       4.61427534215360
H         1.28179302616693      -1.88132162660902       4.31742532911680
H         0.32736602842206      -0.39044038804893       4.43263576967075
H        -2.60241856498452       2.30520738161768       0.39261939786144
H        -2.29005078144010       1.38916824976634      -1.09008054217961
H        -2.91850802922696       0.56394029473954       0.34669667311183
H         1.72154202430951      -3.69650771962817      -3.16500261607286
H         2.83165844343808      -3.66255404252204      -1.78434052645936
H         1.20533456365543      -4.33751903723843      -1.59571834079775
H         5.43548278543552       0.85789222831801      -0.30232106837455
H         4.20642421443495       1.45990022158991      -1.42783954872064
H         4.19764967121800       1.98812809119638       0.26510127399548
N         3.31062483134245      -2.82749348013651       3.83668451168570
S         3.38287546170402      -3.47962086275323       2.38294417402054
S         4.68460816333200      -2.22341238730879       4.43028557590603
C         4.33622003083113      -5.10125928161206       2.43171776487995
C         4.86604587239476      -0.51509880190225       3.66256520202129
O         2.02682378731464      -3.87785358167123       2.05051898884251
O         4.06767941195640      -2.67902822340868       1.37492888478265
O         5.87479011078769      -2.93488013590150       4.04901417143287
O         4.44565382487185      -1.93619988793247       5.81567147184543
F         3.74980140553041      -5.94284381045884       1.59088592109540
F         4.30121002895576      -5.61642316860818       3.64565762198119
F         5.58409768883621      -4.92696484887297       2.05477054148960
F         5.43119975044815       0.31310266228107       4.52150918936601
F         3.65155035725882      -0.02807952937426       3.35763787241839
F         5.58292471726589      -0.53156858878295       2.55137295020884
