39
C11H21BF4N2 optimized with ForceField in AMS.
N        -1.28235743187584       1.30653894904038      -0.23534192356094
N        -2.67546015091414      -0.38908740110105       0.12226946422599
C         1.10354906623306       1.93862733938711      -0.21112115052920
C         1.58501312076737       0.49032637287558      -0.37925308220693
C        -0.26914351485018       2.15452524827990      -0.85990791364614
C         2.99011113703819       0.29805565737646       0.19767538078248
C         3.44327546094436      -1.15862577543067       0.04476415514087
C        -1.81251625880018       0.17675488671128      -0.74324955218994
C        -1.82108660612167       1.45592712997633       0.99174372160325
C        -2.68856955692519       0.40475330395670       1.21247778433205
C        -3.38896704509157      -1.65077184559732      -0.05232277868198
C         4.83715528369921      -1.36478295075887       0.62694812530137
C        -4.85318746074358      -1.38991848064988      -0.38139726582292
H         1.83152246230689       2.62907517792779      -0.69122641948061
H         1.04668255863420       2.19447700786428       0.86978762475010
H         1.59117054852661       0.22704666919793      -1.46031120131842
H         0.88536401565369      -0.19527936021872       0.14743714734676
H        -0.56676587688311       3.22023482818574      -0.75680830008876
H        -0.20320090337533       1.93122486238721      -1.94775233094303
H         2.98540618429795       0.57244914360172       1.27639965274438
H         3.70261853279663       0.96542249990698      -0.33621827289743
H         3.45706705196151      -1.43717266664745      -1.03205958554855
H         2.73090213852423      -1.83072527376348       0.57259338452016
H        -1.55149581887996      -0.24092354765593      -1.70854579951741
H        -1.58583569162823       2.25556291307039       1.68230462049476
H        -3.26530752092490       0.22140981459540       2.10974204610022
H        -2.93036848096816      -2.23541917805293      -0.87942348385607
H        -3.31240696682052      -2.25598763224793       0.87673390414888
H         4.84032055127711      -1.10855861742535       1.70724374801639
H         5.57554472764256      -0.72735145169773       0.09506401382359
H         5.13497628687998      -2.42829314629306       0.51140343294382
H        -5.33958743628535      -0.83210162306587       0.44689196796489
H        -5.38070849311675      -2.35686755132755      -0.52457185506811
H        -4.92941011922695      -0.79618174413357      -1.31752970795784
B         6.10637189686342      -1.20008281403143       4.73926793498940
F         7.03808833233739      -1.31582549927804       5.80497480029440
F         4.92145158038867      -1.91163200370429       5.06645183788403
F         6.67360501358150      -1.74286227723024       3.55587567053833
F         5.79321202047709       0.16949392817018       4.53014767406817
