29
C9H16N2O2 optimized with DFTB in AMS.
N         1.20193354739874      -0.14808849248183      -0.91203780068718
N        -0.87315059423826       0.37945421569960      -0.70762931676798
C        -0.02370456800986      -0.65030603256593      -0.77605624707380
C         2.41774019256476      -0.95343194387056      -0.96844192883633
C        -2.30875423312809       0.27869591199678      -0.49442670975677
C         1.16352605594020       1.22117972591140      -0.91010303642095
C        -0.15229233663320       1.54810620397792      -0.77963057825712
C         2.94023663264187      -1.18813900002264       0.44404440409889
C        -2.61625799815740       0.33150557154985       0.99972936006829
H        -0.29147783594389      -1.69297534346161      -0.75410399977794
H         2.18136893458060      -1.89633327577728      -1.47017546649483
H         3.15853888886022      -0.39236656838749      -1.54360330533335
H        -2.78771989241946       1.11149084046958      -1.01615206939965
H        -2.65694572232209      -0.66277219855342      -0.92863604342705
H         2.10824837458322       1.93005543507189      -1.01821650976087
H        -0.63736406768526       2.50734573741771      -0.73951021179570
H         3.25450414420222      -0.23667387402183       0.87078482431148
H         3.80359918134789      -1.84973209618052       0.39665440006551
H         2.17258407951307      -1.63894158221571       1.07393283022157
H        -2.13194646447535      -0.49773094066920       1.51444158048859
H        -3.69251607459907       0.26379671746933       1.15139568644171
H        -2.25604610551328       1.26724623204245       1.42548934624928
C         5.52823789506538       3.22489917663052      -0.96622480336442
C         4.27293355647881       2.33213622791636      -0.91692888529573
O         4.41798524397770       1.12987088195410      -0.65975687532551
O         3.17990690653410       2.91758247277383      -1.15548237733301
H         5.35454853078663       4.13275890045751      -0.39065441761827
H         6.38801140785491       2.68855763676966      -0.56970411428863
H         5.72034346169483       3.50293516209955      -2.00209951823021
