27
C7H13BF4N2 optimized with ForceField in AMS.
N         0.06805856511418      -0.64031570393694      -0.45647890033541
N        -1.99401510040435       0.11585061781481      -0.11495047158978
C         1.44758098833477      -0.72888083583058      -0.93277298982692
C         2.43924762439533      -0.39090532894030       0.18727403380570
C        -0.83746157870184       0.30382658384024      -0.77941831793933
C        -0.53791253288245      -1.45273953973566       0.43382603542144
C        -1.81865280147504      -0.98283976946739       0.64530184491176
C         2.26008234399967       1.03849385674837       0.69689501950266
C        -3.18296397318697       0.95740037157082      -0.16541006914127
H         1.60375177099014      -0.03262093703211      -1.78618030358722
H         1.64269797628225      -1.75927489606455      -1.30102285568620
H         2.31153345627731      -1.10202318895428       1.03151777478458
H         3.47376471002461      -0.50439282162422      -0.20259622383878
H        -0.64961919988967       1.12341151670197      -1.46223832573414
H        -0.07931823862607      -2.31239968280318       0.90509485816582
H        -2.55854994138228      -1.40155069847599       1.31526060836988
H         1.25796564491676       1.16675579054404       1.15677942525825
H         2.37927590217200       1.76481496217263      -0.13478905532884
H         3.02291764499581       1.25440434983566       1.47149501623334
H        -3.02154059815417       1.81854337947253      -0.84815255574190
H        -4.04561855907554       0.36406487202486      -0.53294634671155
H        -3.40934338746554       1.34520103285066       0.84994694781679
B         6.89292218665857       1.56565737426245       1.59806564268620
F         7.56635405591975       0.90875914745210       2.66194119099658
F         5.52112768318882       1.71362291494501       1.92874045879629
F         7.01402504333967       0.79411990185044       0.41168090122954
F         7.46917162023430       2.84712860297861       1.39151192368251
