18
C4H12ClN optimized with ForceField in AMS.
N        -0.03016741485890       0.00131651047397      -0.00468283113777
C        -0.95620582127413      -1.08907713448122       0.37169398724699
C         0.68982368393348       0.47211797533385       1.19857933322298
C        -0.79666882961003       1.12338490952675      -0.58905696566331
C         0.94211219143715      -0.50086920592128      -0.99990233309123
H        -0.40287160254478      -1.94124926811919       0.82697438963427
H        -1.70831605316077      -0.73551530163641       1.11212361909044
H        -1.50324995237295      -1.47227542257207      -0.51856230937008
H         1.39643870534906       1.29369597229187       0.94416808425118
H        -0.02289084709075       0.85764862352517       1.96194910950030
H         1.27539133049589      -0.35359717339310       1.66132150655829
H        -0.12098179926568       1.96266215758928      -0.86917216412794
H        -1.34028968195303       0.80054779569694      -1.50506493186735
H        -1.54653134993575       1.51375065331553       0.13499528375460
H         1.67089386370582       0.29211515742187      -1.28091361833626
H         1.51410921349755      -1.36615890068791      -0.59657720330768
H         0.42474045261531      -0.83502281784875      -1.92725290810981
Cl        4.38494970063251      -0.43476562421527       0.32783023325236
