30
C8H13F3N2O3S optimized with DFTB in AMS.
N         1.11649781741510       0.06936919351048      -0.22191268723380
N        -1.02192284694012       0.31229945984177      -0.22599872635367
C         0.00482967657854      -0.20665416734879      -0.89585572794016
C         2.46103217450022      -0.37674111152783      -0.59077662681096
C        -2.42710904924162       0.12415385676071      -0.57183800934532
C         0.79179490268102       0.75873222341624       0.91694151128101
C        -0.55782842171643       0.90827279131471       0.91734982626459
C         3.03598062068999      -1.28696580726354       0.48707084853162
C        -3.04483929606936      -0.94655268238963       0.32176323856593
H        -0.04839787638836      -0.73680346932829      -1.83261068018292
H         2.37273677652264      -0.91410585380356      -1.53800527553736
H         3.08518986539074       0.51173085956102      -0.73074507156148
H        -2.93950745683456       1.08341345478260      -0.45178038646276
H        -2.46968588541915      -0.17774378309723      -1.62125073629346
H         1.53480404148996       1.08792230017258       1.62170236442687
H        -1.21492525232777       1.38872906149830       1.62082980321951
H         3.12174296691247      -0.76151153503537       1.43789415987610
H         4.02624387877970      -1.61394953907741       0.17341267931966
H         2.40381999697483      -2.16394361386500       0.61631829866519
H        -2.49980750184030      -1.88293670651575       0.21002301957074
H        -4.08244069688096      -1.09883620599019       0.02868847138683
H        -3.00993101440097      -0.63813128080623       1.36598101693566
S         0.49154276899487      -3.34577574340275      -1.19106138986850
O        -0.54708154065660      -2.65808249888491      -0.42418390059044
O         1.50439341343142      -3.99026922843283      -0.38794065675271
O         1.00407582842474      -2.53664946578602      -2.29332241654995
C        -0.41610221704985      -4.71552950573666      -2.03700721045555
F        -1.36145997476985      -4.20802545074719      -2.82663214330428
F        -1.00201473596207      -5.51359486607601      -1.15259300207033
F         0.40442241091174      -5.44266058424327      -2.78269036023006
