58
C16H22F18NP optimized with ADF in AMS.
N        -1.63468234441720      -0.09165164544788       0.50560129833832
C        -2.16782796579779      -0.67656214711727      -0.80313324386922
C        -2.72449152696892      -0.42369624946242       1.51297877148861
C        -0.32500138644470      -0.72784660808655       0.93266275476675
C        -3.70112318069736      -0.70946478870057      -0.66838068911850
C        -4.02015602324917      -0.20509462699124       0.75474137685444
C        -1.48980938470665       1.39031452659176       0.37857079260019
C         0.81705442365758      -0.56185562458739      -0.05239909002937
C         1.99921901586931      -1.43294879551121       0.38439695847521
C         3.16036387407738      -1.37718049045904      -0.60521748438719
C         4.31998223311170      -2.27344350666469      -0.17998684285583
H        -1.74981156566267      -1.68397170053817      -0.89130616036182
H        -1.79794583498574      -0.05583908209464      -1.62826972771558
H        -2.58217329905358       0.19758978869688       2.40778698753706
H        -2.59290638879886      -1.48385715391136       1.76807276916018
H        -0.54962057126865      -1.79354819729146       1.07429190986512
H        -0.07933029439673      -0.28947245750238       1.91385973785015
H        -4.04358606234346      -1.74655378814283      -0.78832998898726
H        -4.19339015022722      -0.09837338207777      -1.43727288232963
H        -4.31010364232417       0.85701972316357       0.75602732131414
H        -4.83738464631367      -0.77281839098481       1.21996561543334
H        -0.73379418838161       1.60819760794784      -0.38359880659867
H        -2.45123819116430       1.82078221029689       0.07614357974678
H        -1.17809276271391       1.80119790312944       1.34741924464247
H         0.49844036968991      -0.88573382684394      -1.05788187983422
H         1.14231082685202       0.49052170187181      -0.12255708973745
H         1.65544925711428      -2.47626659813367       0.48307827422944
H         2.34644259131055      -1.11451507088607       1.38517308866351
H         3.50763787545479      -0.33276970432945      -0.71093534160334
H         2.79375393823612      -1.69152908787258      -1.59948518966625
H         4.71158170671236      -1.97111468856517       0.80448813214465
H         5.14899633088531      -2.22840995304454      -0.90187350301781
H         3.99327759055326      -3.32231806139086      -0.10327416937653
P        -1.94456929898063      -6.20820616805348       1.26808281767234
F        -0.41689191598477      -6.77137999528042       0.92171109044125
F        -1.46383782217026      -5.51380319136322       2.70543081901213
F        -2.48854376751299      -6.78176133806044      -0.19726424006011
C        -1.22992903828092      -4.58083140982267       0.38427669147476
C        -2.22749440619071      -7.97444576366485       2.21811338494983
C        -3.86408419023733      -5.62726216583386       1.60539009001702
C        -0.93085038130122      -4.60057282955903      -1.14440872933325
C        -2.99621564523142      -8.15936902895855       3.57523159361559
C        -4.65531297696613      -4.45697522924630       0.93321589536625
F        -0.03056941925758      -4.22654260399519       0.97348331813961
F        -2.05076305761650      -3.45512713223218       0.56245840262114
F        -0.97076726589062      -8.44022845200766       2.55043795221879
F        -2.78029598106702      -8.88901355786776       1.35173710952984
F        -4.04973208491031      -5.39352356678310       2.95485692857103
F        -4.61731397753378      -6.73055973577386       1.26291117864513
F        -0.29409585577228      -3.41091440002117      -1.48870173091668
F        -2.06108597147005      -4.64913801599207      -1.88215499463162
F        -0.11534091366427      -5.59629380350605      -1.50961089744457
F        -2.75163206663060      -9.42278134020313       4.03252168063438
F        -2.55540858714619      -7.29118439956402       4.51719761240077
F        -4.33801019148143      -8.04072607870530       3.47081179158521
F        -4.38715308046636      -3.25010572077854       1.52473125415870
F        -5.99218334341802      -4.65149838348500       1.08514174735207
F        -4.41163155742683      -4.34511685010238      -0.39417927614131
