37
C9H20F3NO3S optimized with ADF in AMS.
N         0.53030506311747      -0.22704115762147       0.22662240783868
C        -0.62684919502509      -0.41727643505360       1.18460803235504
C         0.05200113530576       0.30776327119454      -1.10993943741890
C         1.23595288598726      -1.58189994881605       0.03032070487830
C         1.52719893805224       0.77405772751841       0.82489744757478
C        -1.81520271207351      -1.17899486048860       0.62462750247841
C        -0.78272234180058       1.57512264604058      -1.05127951027081
C         1.96851056300990      -1.75771885014301      -1.28215715739324
C         1.91278330033779       0.52757412613943       2.26701128369334
H        -0.20646092987386      -0.94211668563129       2.05351863559667
H        -0.92761162828192       0.58734471772394       1.51730023498413
H         0.96198147518879       0.48212710830868      -1.69945670824047
H        -0.51017061365440      -0.50662224573825      -1.58825055733707
H         1.95627314525013      -1.65190236280609       0.85512395419823
H         0.46244927428421      -2.35100583040946       0.15287806068991
H         2.42444875083015       0.72699345823396       0.19476064373386
H         1.06080484552440       1.76150422414113       0.71808947432608
H        -2.54646823111677      -1.30294527366256       1.43718569456228
H        -2.31730588507121      -0.64592502433840      -0.19407592675265
H        -1.54786522517031      -2.18489960015386       0.27168265397515
H        -1.09065278269741       1.80852093915516      -2.08192652196958
H        -1.69611586992146       1.46863590259367      -0.45042174723033
H        -0.21434236718598       2.43867039153931      -0.68256289106075
H         2.55841704600601      -2.68172570260201      -1.19228539246657
H         1.29432346101772      -1.86073599409068      -2.14398682252875
H         2.69677432043880      -0.95790004963847      -1.45172070215965
H         2.73860414061095       1.22654866306153       2.47028244679935
H         1.09546987213116       0.71677367203131       2.97762135258721
H         2.33305084134715      -0.47501665047977       2.42240878438169
S         5.15834654476290       0.29784989096009       0.35647871358659
O         4.63812661524953       1.58055582079552       0.87000385203273
O         4.20233644944277      -0.83049200959633       0.49552254430914
O         6.55839251524449      -0.01665713136393       0.63195646846029
C         5.13596745384660       0.58524023271081      -1.50193319389600
F         6.03308144504451       1.52211291114352      -1.88841918623661
F         3.88721946222765       1.02659071547913      -1.91770823978526
F         5.39003992241416      -0.55618691383693      -2.20035298029521
