37
C9H20F6NP optimized with ADF in AMS.
N         0.63401055852784       0.18380188300106       0.10253987793228
C        -0.67503843955786       0.92355201625831      -0.08941595841327
C         0.43876759021112      -1.28353517217580      -0.25051345331632
C         1.65520067505952       0.80549806171259      -0.84743109561971
C        -1.82842987329795       0.31749844378545       0.69512911354990
C        -0.70590241728077      -1.92141539043738       0.51941976994849
C        -2.01661421176459      -1.15756171169129       0.33810833748469
C         1.11158967952846       0.33541374185015       1.51929929307094
C         2.99060924509428       0.08736047253515      -0.93227146957352
C         3.98361805895087       0.90756551031796      -1.75599892541541
H        -0.89042641879164       0.88171715767356      -1.16943002114754
H        -0.48718623246525       1.97180979436668       0.18785893624531
H         1.38882680121877      -1.78820558680306      -0.03446421316591
H         0.23906163543072      -1.29928907300108      -1.33545855959672
H         1.78603422941208       1.84183204246539      -0.49438319061286
H         1.16115592839410       0.83998360412497      -1.83289337380024
H        -2.73133066143979       0.90228691751559       0.45096937748466
H        -1.66696125533047       0.43848327037610       1.77933743703931
H        -0.43836347331030      -2.00836877225937       1.58569043911586
H        -0.79989380391834      -2.95642793399668       0.15139612926678
H        -2.81260070905536      -1.60203951379485       0.95605680467392
H        -2.34600172872004      -1.23642230960717      -0.71499826642207
H         2.05727612846318      -0.20398275422461       1.65057147928788
H         1.24894789404431       1.40754804632056       1.71321697414036
H         0.36103583603760      -0.07543928680385       2.19995075749503
H         3.41571305042641      -0.08428184274077       0.06572699142245
H         2.86427266289273      -0.90184047763625      -1.39831564582730
H         3.62235760130765       1.09304696721377      -2.78030220945323
H         4.19254784112917       1.87856683098918      -1.28015681219102
H         4.93344335921752       0.35858962009525      -1.82063663360785
P         4.33444743542184      -2.11284871459811       2.13308754348669
F         2.84827322927369      -2.33073559022526       1.33568646251438
F         4.58211765951682      -3.72766520379839       2.09407079439083
F         5.05323507283388      -1.93569222111436       0.65298169631041
F         5.75386570549284      -1.84731878989009       2.89567563522350
F         4.02560359012679      -0.44925850218593       2.13240536684376
F         3.53244603082015      -2.22690421761739       3.56637852883554
