43
C13H27NO2 optimized with ADF in AMS.
N        -1.74568858932245       0.27087867258650      -0.19220795071444
C        -1.99443382363876      -0.52205008465592      -1.45214591704411
C        -2.97931364592288      -0.05177209784638       0.64626651459777
C        -0.51250799365898      -0.21640005996493       0.55407419528845
C        -2.56021843298679      -1.85615929928525      -0.96926193912611
C        -3.24344153650260      -1.53319681512352       0.38710731784797
C        -1.66467177311772       1.74648015221998      -0.49550369766928
C         0.80221278029517      -0.02399551168717      -0.17715215414670
C        -1.35705543718947       2.60076522933137       0.71986450016050
C         1.95409618292411      -0.50135546993977       0.71473839894595
C         3.32415459331029      -0.35203740658597       0.05598941413211
C         4.46296163722613      -0.82398152584007       0.95792844059650
H        -2.74293489627414       0.04846026922629      -2.02506872229326
H        -1.06995214149087      -0.58668430847709      -2.03944198142220
H        -2.73039034253952       0.18519821437688       1.70253650261669
H        -3.78057440466848       0.59293753932321       0.25161159437312
H        -0.55523949032164       0.30220956605771       1.52928929095148
H        -0.69912864877561      -1.26822769546509       0.81190321792003
H        -3.25941730063995      -2.26226036485961      -1.71511473275747
H        -1.75689035330451      -2.59634600896017      -0.83880809214164
H        -2.80488168358178      -2.10732290497623       1.21924763041740
H        -4.32564025207754      -1.72488878554829       0.35957332610887
H        -2.64417788186138       2.00577416336316      -0.92690933993606
H        -0.90803183938158       1.87125303778034      -1.28491575524122
H         0.97068716410969       1.03808333216960      -0.43028767320948
H         0.83267621772228      -0.58854508339102      -1.12696155692169
H        -1.95556918095141       2.30739975603756       1.59465856912524
H        -0.30170443135957       2.52528460036945       1.01524500049891
H        -1.56736981542292       3.65138147611019       0.47071403431536
H         1.78846998467851      -1.55890489091472       0.98935634199234
H         1.93386695005982       0.06577700560766       1.66249985171658
H         3.34089229393494      -0.92361215399680      -0.89010551568519
H         3.48490189711931       0.70687923479470      -0.21813179306325
H         5.43978151427820      -0.70550029938039       0.46534068962505
H         4.48542695771721      -0.24991823798016       1.89779906721089
H         4.34254509217479      -1.88714239287919       1.22103917275313
C        -1.26014013692076      -0.71693993663815       5.22951218582641
C        -1.52497500475111      -0.59295168111017       3.72260853600958
O        -1.61502893507894       0.59970727053829       3.26464335471839
O        -1.60779869551821      -1.66428215427244       3.05714645024380
H        -0.17157857421783      -0.74573090366007       5.39993866574137
H        -1.66281448386451       0.15059170157025       5.77078290138728
H        -1.68499232020856      -1.65084091892457       5.62399924265094
