38
C10H20F3NO3S optimized with ADF in AMS.
N        -0.68183101085597       0.12092810437028       0.37898134135032
C        -1.48579835526667       0.51275062197681      -0.85561236969169
C        -1.56206645403445      -0.70121508900751       1.31059650182783
C         0.47685159179667      -0.73378673982181      -0.12457102002290
C        -2.78286458810355       1.22782567934965      -0.51951532043099
C        -2.86895344743968      -0.00433683243980       1.65341219923239
C        -3.64900175798619       0.35938861708225       0.39153852609895
C        -0.16010508030733       1.33122449074756       1.07638437765373
C         1.34305846854164      -1.38426273003587       0.93935832858222
C         2.42270160348233      -2.21337340870857       0.23729002006970
H        -1.70223284672356      -0.44287358338597      -1.36180739991166
H        -0.81292363893741       1.12273913621873      -1.47844481598830
H        -0.96224556420201      -0.91080391107497       2.20644328510936
H        -1.76283880449211      -1.63375391103060       0.75873072053529
H         1.07620947616634      -0.06257823826992      -0.76371634926216
H         0.03395747076947      -1.52181010863884      -0.75703930641029
H        -3.29597022171909       1.42377373235818      -1.47659882007308
H        -2.59444421672119       2.21516925370414      -0.06062914370097
H        -2.69780330136894       0.89104571294465       2.27902297728642
H        -3.44402467959050      -0.71135199644362       2.27550940386827
H        -4.58311901237438       0.88281757627480       0.65200458402820
H        -3.91520506315818      -0.56894713417280      -0.14427463814386
H         0.43473805216435       1.01110741271465       1.93938468751784
H         0.46710569498887       1.89677197239260       0.37484622805459
H        -0.99467286842060       1.95269760529403       1.41485586949128
H         1.81122206527214      -0.63995536131327       1.60660081997510
H         0.73324729547032      -2.06459205524756       1.55342121788299
H         1.95032921038904      -2.95404071598275      -0.42481688383922
H         3.08617595724958      -1.57564027321302      -0.36797247386214
H         3.03894754643060      -2.74427193219027       0.97671877540331
S        -1.60081656396703      -3.70486404913729      -1.46699069937887
O        -2.38302010054398      -2.51043822542957      -1.03843008197619
O        -0.16237142469602      -3.41713277415087      -1.64651307127953
O        -2.23948338027842      -4.55931103707949      -2.46159006529381
C        -1.61567738889319      -4.75061743255494       0.09579470630456
F        -2.88087298338643      -5.07117988044072       0.47246392943483
F        -1.04079542778258      -4.07493369609442       1.15194972104599
F        -0.91951065947189      -5.90043448296388      -0.07044330668750
