39
C11H14F6N2O4S2 optimized with ForceField in AMS.
N         1.11092393044940       0.00026547895703       0.54004170324582
C        -1.25118606920742       0.00414930406270      -0.14774127341494
C        -0.27271363266125      -0.01107962165166       1.03059265140172
C        -2.70426094442178      -0.00349443106889       0.33979167866972
C        -3.67729147138356       0.01184228713125      -0.83526563632600
C         1.73127419470294       1.19308619078973       0.28539648381564
C         1.76361875355699      -1.18167780743783       0.31843583232492
C         3.04044747447997       1.22200414430254      -0.20149160560459
C         3.07566166261076      -1.18788392513413      -0.16069499245836
C         3.71421269743312       0.02245655160173      -0.42530633833429
H        -1.06832467031363      -0.88977606681597      -0.78397215034875
H        -1.07059374973794       0.91478235904418      -0.76023803436712
H        -0.45254989186452      -0.91494288746696       1.65512357792432
H        -0.45427167878535       0.87181474648221       1.68387499512862
H        -2.89123928831217      -0.91401682524843       0.95008131388806
H        -2.89230280888543       0.89010002437586       0.97430531662841
H        -4.72059009625753       0.00697049561833      -0.45523905548602
H        -3.52652264950898       0.92595220332388      -1.44822799224912
H        -3.52650454159336      -0.88594347477387      -1.47188500160907
H         1.21200881411083       2.12980312519655       0.45033761565210
H         1.26799775822833      -2.12768040430654       0.50183148838325
H         3.52498612720533       2.16709777804860      -0.40964781726729
H         3.58619640475164      -2.12489808291598      -0.34149798709355
H         4.72394873643339       0.03027392934515      -0.81468745154277
N         2.77563015888755      -2.99766850884920      -5.98578914547429
S         1.60418991884827      -3.38436042097178      -7.06455885484992
S         2.94420159808632      -1.48840379137049      -5.36923873953837
C         2.24922678885219      -3.20822801642649      -8.71489909026190
C         2.12558651241042      -1.41033089491553      -3.79154828552528
O         1.19011887621789      -4.81278125341454      -6.85354849722102
O         0.41086934097275      -2.48513787378366      -6.89528787599548
O         2.34617606671133      -0.46467794700460      -6.29412807228079
O         4.40447199375614      -1.19593260274466      -5.17286712599082
F         1.27367171502606      -3.55117227887930      -9.63165898321332
F         3.34116103536418      -4.03983560083434      -8.87588294295824
F         2.63653832925365      -1.89912949647056      -8.92732735337561
F         2.29074537437555      -0.15083181820640      -3.24770838202631
F         2.67293355630264      -2.35473838689484      -2.94523205685410
F         0.77739823670525      -1.66638988289308      -3.95027146579525
