24
C6H9F3N2O3S optimized with ADF in AMS.
N         1.30322984204137       0.13261181800581       0.20888637853428
N        -0.84007292956983      -0.14164833416295       0.01583949400390
C         0.33575062078311      -0.78055755629072       0.07519142013823
C         0.73629543259957       1.39043540595930       0.18582530865415
C        -0.60989447973489       1.21680292473494       0.07001819412014
C         2.72942233160299      -0.14756344804189       0.09490413381860
C        -2.11672036275610      -0.79947249440445      -0.24716620254289
H         0.47943032878239      -1.84563764926065      -0.04037417051141
H         1.33766323068543       2.28941189759721       0.21310038020599
H        -1.41593747621042       1.93545921718869      -0.00256041040037
H         2.90535481375761      -1.19789368232507       0.35294505676316
H         3.01850181828208       0.03487673863726      -0.95029664419627
H         3.27944823017061       0.49747300842065       0.79055230868592
H        -2.89876383068172      -0.03423750665157      -0.28838028239682
H        -2.03158833225122      -1.31374391293546      -1.21464673699005
H        -2.33932620404822      -1.51063786408893       0.55850636421317
S         0.62199858367974      -0.83515416985236      -3.27927765728096
O        -0.03261790143541      -1.79961961665004      -2.35414072922674
O         1.26525190376187      -1.42528437890994      -4.44983975068511
O         1.36005002294069       0.24561674714676      -2.59190207394853
C        -0.85023590918746       0.08642538935199      -3.99252304245246
F        -1.56065290328425       0.72434355147757      -2.99664444098484
F        -1.71409305081628      -0.75318409958870      -4.61955812999047
F        -0.46364003551168       1.03436471724253      -4.88014992613060
