37
C11H24ClN optimized with ADF in AMS.
N         2.15287693921413       0.48137933185829       0.07674577007934
C         2.49420444932706      -0.78226591795387       0.87149515660862
C         3.29401269498466       0.56786027644758      -0.92895111910546
C         0.83702873346951       0.32792061469657      -0.65128448754737
C         3.36280417524931      -1.65511867855402      -0.04876193549799
C         3.52165762216949      -0.86684585619912      -1.36538517097798
C         2.16580578926810       1.69050006774185       0.96107014677465
C        -0.40282124408015       0.35305066754657       0.23287450753508
C        -1.65685112957141      -0.01567224196911      -0.56602701820508
C        -2.92621975437086       0.02536774661819       0.28582700083524
C        -4.18786405013453      -0.34335759914441      -0.49392725435707
C        -5.44815270513373      -0.30315881470804       0.36761765648169
H         1.55478938490171      -1.24558159799310       1.19603140986530
H         3.11168255972021      -0.43606456440884       1.71980817105665
H         4.16431300354654       0.90649950251206      -0.32513165268600
H         3.02031632358318       1.28338808743292      -1.71691540746505
H         0.89572113437641      -0.62321656308627      -1.20106890727788
H         0.79674871410032       1.14733274051637      -1.38737929837382
H         2.93635551511373      -2.65549903928450      -0.20957397185467
H         4.34698706359243      -1.74582136879352       0.43876778148785
H         4.53118723181907      -0.97808599956453      -1.78861289464812
H         2.79915996623969      -1.19204134197281      -2.13158581433026
H         1.42449654386498       1.55963495989804       1.75743719608958
H         3.19154774353108       1.74389976358928       1.38688802761645
H         1.92518578825079       2.57128177544909       0.34950574196825
H        -0.29359428698864      -0.35365905759732       1.07322376896423
H        -0.53798719180313       1.35560231274697       0.67130492679743
H        -1.53649403482293      -1.02799046297907      -0.99455083525540
H        -1.76936502170060       0.67584573424982      -1.42196626194087
H        -3.04669250437927       1.03731133735371       0.71622436525185
H        -2.81266835976195      -0.66493278513962       1.14307855954930
H        -4.30029924992217       0.34786028061285      -1.34914026520563
H        -4.06435804160723      -1.35340626088621      -0.92548290465637
H        -5.61004078078164       0.70298415928560       0.78567689743869
H        -6.34235391443094      -0.57255044253595      -0.21427936217192
H        -5.37229165947433      -1.00693137903693       1.21188105376419
Cl        5.23410514654111       0.70602485525148       1.70694448219256
