40
C10H22F6NP optimized with ForceField in AMS.
N        -0.10969961473003       0.02246434686443      -0.07716283856927
C        -1.02671616750290       0.52634009464150      -1.15153588888238
C        -0.62404835736834      -1.29852891622191       0.41356652306649
C         1.23108763955487      -0.19447357418298      -0.72427281483233
C        -2.49832672094475       0.63373863742321      -0.71956238143358
C        -2.09856640553621      -1.27221274420486       0.86536785727911
C        -0.01751434847372       0.98588697431791       1.07538014527652
C        -3.00899457272460      -0.71521112820956      -0.22472084091115
C         2.36930353237654      -0.64782303060625       0.22372343222410
C         0.58454730231725       2.36302289344856       0.74500907694159
C         3.66612994275853      -0.87340490879233      -0.54940401809081
H        -0.99810019471670      -0.15843087642913      -2.03188373839823
H        -0.69648611886734       1.51157744986005      -1.54159813087721
H        -0.03084053656580      -1.66027923845559       1.28126189584341
H        -0.53285856722336      -2.07374853606935      -0.38233591297998
H         1.56312564058542       0.72909771271756      -1.24843399574989
H         1.14308747348783      -0.96098921362433      -1.52931567157785
H        -3.10870022972913       0.94711040328275      -1.59409467423009
H        -2.63398221022693       1.41233709367062       0.05879859723692
H        -2.21523480000958      -0.68362401609495       1.79922148219043
H        -2.42073371364865      -2.31029168404274       1.09990280737213
H        -1.01177858800825       1.17697285736493       1.52240716803221
H         0.57364323029887       0.54538699088819       1.90640927312844
H        -4.03767375784482      -0.59654218576568       0.17699968563182
H        -3.05060857345568      -1.43151732750253      -1.07454348150998
H         2.57422933233460       0.12162521817653       0.99550165692138
H         2.10998888732086      -1.60096402253781       0.72747105373355
H         0.60528831317321       2.97249889107015       1.67088707051571
H         1.62892299181962       2.28423746998179       0.38407730716927
H        -0.03309799144858       2.91627822534377       0.01027487154133
H         4.46802158290919      -1.18412567518817       0.15330179414975
H         3.52926034415479      -1.67413775050148      -1.30682004821702
H         3.98212711744203       0.06322095370654      -1.05559906966063
P         0.23844961752036       5.38260998751871       4.50322053188489
F        -0.81691176675406       5.49244789316183       3.15209448769913
F         1.41944122903742       4.53792555324116       3.58696582116092
F         0.98162262708559       6.85402674011325       4.02072724406555
F         1.27441960820245       5.21496812288667       5.86284281908730
F        -0.83033665209717       6.28759959227008       5.49788222473874
F        -0.55452455200284       3.91343457147945       4.90791614702970
