43
C11H21F2N3O4S2 optimized with ADF in AMS.
N         0.73473401249100       1.56504935469128       1.08446229064184
N        -0.61131082599713       0.55946745938607      -0.28786497367666
C         2.82429412484446       1.04279237874732       2.29152381369711
C         3.30325496894168      -0.00804101228697       1.29458045946198
C         1.97524103151095       2.13282975549292       1.63900209866359
C         4.15834447479172      -1.10500139115655       1.92520295248021
C         4.67841281819426      -2.09916556369361       0.88728395544488
C         0.57299679051585       1.18046438830864      -0.18953890373151
C        -0.36917772683683       1.17776942883316       1.81621406133344
C        -1.21968569378216       0.55116944102156       0.95005796598472
C        -1.14160407105788      -0.02867720949427      -1.53533132635682
C         5.52221579934818      -3.20871300019233       1.50708208926872
C        -1.28357989332442       1.01290540499252      -2.62994072888590
H         3.69122829231319       1.54549342099216       2.75587067648949
H         2.25363442900357       0.57141326986554       3.11319429582555
H         3.88869020310934       0.48582745675693       0.50119846877656
H         2.43913548541931      -0.48304460306667       0.79658940486388
H         1.68062034803021       2.91547995315707       2.35452922647073
H         2.50942272119174       2.59922706017776       0.79752183671515
H         3.56992720024913      -1.64343575376166       2.69289827208529
H         5.01618624649048      -0.64622218510425       2.45216641635963
H         5.26746694114262      -1.55251005373640       0.12979475117773
H         3.82448066898782      -2.53758200187061       0.34181116477823
H         1.28539146890859       1.29447045650730      -1.01369756498323
H        -0.45881081940667       1.38470612594284       2.87541056032413
H        -2.19682116959539       0.11150852151796       1.10713818885739
H        -0.44872036632200      -0.82457509364173      -1.84760751557791
H        -2.10697359878342      -0.48189675298874      -1.26898654257807
H         4.93593867636915      -3.79237213071523       2.23631662521396
H         6.39567293506565      -2.79382485238969       2.03633358204169
H         5.89321134891359      -3.90401046123040       0.73879649669368
H        -1.95226086423016       1.82850038313133      -2.31641765024295
H        -1.69852011486245       0.52966111874558      -3.52575905845740
H        -0.30034605442907       1.41951677594927      -2.90712372309181
N         2.40465522590088       0.83880824751178      -2.59507062041984
S         3.75241630138035       1.62946915499463      -2.19147095672926
S         2.43181478672176      -0.67877080105906      -3.14750478542623
F         4.19250274312667       2.32186551626055      -3.60958304481864
F         2.44609724007283      -1.53154882813824      -1.70900200722724
O         3.31780596066608       2.75029500168687      -1.36497537033650
O         4.89310485665830       0.83182699067146      -1.79201614352586
O         3.62497342635376      -1.10330401044192      -3.84095346837679
O         1.10436024901449      -0.96039919517415      -3.66638762170699
