43
C11H17F6N3O4S2 optimized with ADF in AMS.
N         2.26544326427271      -0.33639718952479      -0.68140021572370
N         0.36086037074370       0.36707204630462       0.10408142031595
C         3.47546747108783      -1.18734088819166      -0.77407164759731
C        -0.84437847997846       0.46723208648731       0.94203164339626
C         1.18182527390338      -0.68735322776010       0.02689763410097
C         4.61224574055009      -0.53923013016520      -1.54451878097073
C        -0.51506514219436       0.88225369584914       2.37854623546628
C         2.14376019155991       0.98647187273848      -1.04083934079536
C         0.94744695989273       1.42579986560301      -0.55441102950972
C         4.38012467967662      -0.43647128401417      -3.05041571520825
C         0.06345234153257      -0.24056155064113       3.23116225763673
H         3.16975386240345      -2.13486996374254      -1.24649053751044
H         3.78354115459725      -1.38126345281402       0.26361685864309
H        -1.35131322065602      -0.50975120904651       0.91119564301112
H        -1.49775396528792       1.20102225741648       0.44791037912567
H         1.02663493940521      -1.64641859311815       0.50402159043609
H         4.84376488352106       0.43711069952593      -1.08570891453203
H         5.49898196977782      -1.16699069299015      -1.35026641478589
H         0.18712324826218       1.73198675127429       2.34827517497884
H        -1.45503608458018       1.25465418981274       2.82288334559384
H         2.92715068581366       1.52465676035090      -1.55370029427720
H         0.48663452641857       2.40471366028279      -0.58796751390308
H         3.47922883452901       0.14349027295649      -3.30209190512202
H         4.26228714599358      -1.43579574741427      -3.49953136155891
H         5.23634147197674       0.05213190420473      -3.53931172917857
H         1.01061884808791      -0.61371875317274       2.82110471458103
H        -0.65359309072370      -1.07179117127566       3.33485212053826
H         0.31164506305112       0.13014406209804       4.23649373994411
N         4.92759838343917       1.10182595254191       2.98940299118562
S         3.82490522809630       1.62165148982443       1.96922052059159
S         4.56669978172129       0.02582141424087       4.15830092873320
C         3.12185745457597       3.22054097109057       2.67893170277947
C         4.54969539413196      -1.66199809256140       3.26271081266422
O         4.47165265349271       2.07524303542590       0.73787166025068
O         2.63017424737476       0.77759485736857       1.85855874654250
O         3.22803826446955       0.12630264569822       4.72672620641756
O         5.73681122810193      -0.07593125444269       5.01152793743518
F         2.19871140564211       3.70722448181499       1.79037292354185
F         4.07448700721678       4.15776067989729       2.85237613306746
F         2.49004410332497       3.00820978474599       3.85335055011531
F         4.92941687440507      -2.62428124226714       4.12921590705166
F         5.39466399438888      -1.68660732409603       2.19639829095830
F         3.30496106738207      -1.98583088431535       2.80238242867036
