29
C9H13F3N2O2 optimized with DFTB in AMS.
N         0.83946171642931      -0.20857903749334      -0.52299406642212
N        -1.21670225535551      -0.66458886735405      -0.08376848822392
C         2.03396875735508       0.33317341022655      -1.16584781967299
C         2.97364861499814       0.96701319031114      -0.14121478104711
C        -0.41473705349779       0.08315381529861      -0.84837555915571
C         0.85043719008060      -1.15850175427224       0.45789004321274
C        -0.44688850554043      -1.44932533425765       0.73710403575433
C         2.29709791805880       2.07238785677932       0.66533728991038
C        -2.66764900387725      -0.67509479986907      -0.12939862117056
H         1.70768858454554       1.05821529075031      -1.91687335108110
H         2.52931170726030      -0.51287632687683      -1.65609454487758
H         3.34808727806714       0.18826506769836       0.52905017687386
H         3.82525143126624       1.37683534911082      -0.69064029235724
H        -0.73305473361303       0.78993076228551      -1.59523901196556
H         1.78291123829681      -1.55711694019678       0.84591364494805
H        -0.88367968267000      -2.14098615671623       1.43535977286978
H         1.44954660327351       1.67560300336792       1.22638898991569
H         1.93751498541447       2.86750824640269       0.00937386774226
H         3.00866372696140       2.49921876727502       1.37121284973314
H        -3.00796165926361       0.07000171405188      -0.84639705451543
H        -3.01083219583114      -1.66456470060566      -0.43430566004544
H        -3.06157038933971      -0.44272929453449       0.86051743047750
C         3.55577869204583      -2.62249907661646      -0.30397205415412
O         3.64014613434491      -2.03187321456722       0.77729667006905
O         2.68100869271585      -2.56480848141432      -1.17046026485221
C         4.77512350451838      -3.61098344558655      -0.62490851528141
F         4.79757240535134      -4.00051352287105      -1.90892975841094
F         4.71730859251135      -4.73039095125838       0.12297965138621
F         5.96444442629348      -3.03592004986777      -0.37237575115954
