42
C12H28ClN optimized with ADF in AMS.
N         0.13014090516023       0.00767033911971      -0.00577396083527
C        -0.72089314496944       0.61333411143334       1.08843796114437
C        -0.73649376989307      -0.58324364242487      -1.09603979600097
C         1.02276277353878      -1.08804547384241       0.61033663023812
C         1.03547167636816       1.08764840198305      -0.62320179832132
C        -1.82459696761769      -0.26898793782766       1.65805283136330
C        -1.80824973720784       0.32501914608471      -1.68582204689766
C         1.51604324456319      -2.16612184331022      -0.34074811255850
C         1.63154486543837       2.09237646848776       0.34999166620805
C        -2.50129609372889       0.45444246122106       2.82412639380163
C        -2.54816768121111      -0.42440682609082      -2.79599765983184
C         2.47409554544405      -3.07600268144266       0.43144660049541
C         2.58682111752064       3.00001852095826      -0.42897790662994
H        -1.14901162571519       1.54142600013641       0.67982839517085
H        -0.01760335768474       0.89613770674764       1.88440962434214
H        -1.19888037627779      -1.48863426944779      -0.67515010676237
H        -0.04042269581748      -0.90251390445149      -1.88437702093898
H         0.44229362366705      -1.53683652627140       1.42751999880524
H         1.91743379206092      -0.56113364239616       0.98977978293495
H         0.42757363165288       1.60624693469893      -1.37631744621882
H         1.88327898455665       0.54035241850132      -1.08209032365380
H        -2.57701378688175      -0.50714870869014       0.88949939831567
H        -1.41752914585901      -1.22853197337264       2.01360510156255
H        -2.52943615574500       0.64260552350654      -0.91581901411722
H        -1.36247910663598       1.24092368815246      -2.10381309992322
H         0.68426405008102      -2.75909898906585      -0.75589837318311
H         2.09862697015668      -1.68929115173740      -1.14780518864614
H         0.85280334088678       2.69752346767613       0.84308011175642
H         2.23178240092396       1.55337306869204       1.10262759162669
H        -3.30886178575313      -0.15992310164015       3.24686671010739
H        -1.78129674049584       0.66737181364175       3.62937473466917
H        -2.93851222368278       1.41253593394728       2.50120911629362
H        -3.32898315230949       0.20957890497745      -3.23948637821746
H        -1.85799415759983      -0.72274948423497      -3.60051256590233
H        -3.03043842699365      -1.33688655467222      -2.41071753881886
H         2.83131837929310      -3.88836707453060      -0.21761811927022
H         3.34584492709047      -2.47847238137161       0.74302884320221
H         1.98620123730620      -3.52881985139348       1.31056108034653
H         2.99753550766545       3.77639428794425       0.23242203752912
H         3.42045220896598       2.38401056030084      -0.80381679137542
H         2.07694669487060       3.50055303875703      -1.26862863221943
Cl        4.07369913786856      -0.09431536025345      -0.23111070449058
