47
C13H28BF4N optimized with ForceField in AMS.
N        -1.54320413618817       0.09748994288564      -0.08560371366930
C        -2.55523469138863       0.48822221535543      -1.12143052788116
C        -1.78658824092118      -1.32813107510734       0.31195545759496
C        -0.19643065456668       0.19022472792430      -0.74941123927044
C        -1.62213219388860       0.97834166306427       1.13241332054837
C        -4.01569940151101       0.27533062481004      -0.68825936524534
C        -3.23221470253259      -1.61602436787738       0.76829581822359
C        -4.24932327083339      -1.17636706900908      -0.28148608067806
C         1.02700333027379      -0.12072322976741       0.14970519971770
C        -1.28126866710394       2.46314164952978       0.90814087262862
C         2.33135788131707       0.04160749165485      -0.64461256846967
C         3.55393297870542      -0.29412754663103       0.21817431907086
C         4.85428184225703      -0.09814905484746      -0.57038934284233
C         6.07007143040685      -0.45396572256188       0.28135172846802
H        -2.40606314900857      -0.11462181042910      -2.04801815994991
H        -2.42797613722899       1.54387271715771      -1.43938799309464
H        -1.11898412795315      -1.62819588580519       1.14818492427881
H        -1.56204587597692      -2.01354708292655      -0.53725053751508
H        -0.05356562992316       1.19973375325017      -1.19562802085956
H        -0.15209180672394      -0.51054453702005      -1.61580989609609
H        -2.63310073851825       0.95225031767590       1.58348167619520
H        -0.95651006134553       0.59518389358752       1.93572373607693
H        -4.68084428978700       0.51667902939921      -1.54576061073878
H        -4.29592919784915       0.96234435421001       0.13636993083984
H        -3.44712110866463      -1.12137710233645       1.73821223381074
H        -3.34304771400143      -2.70951821254846       0.93618437484004
H        -5.27632612778143      -1.28387539508737       0.12971113613915
H        -4.16719629310977      -1.83218598363161      -1.17640620456791
H         1.06774224243061       0.57206082304586       1.01507503705916
H         0.97430764640785      -1.16430649513248       0.52377927979711
H        -0.23672882028402       2.60233258916951       0.56470149444679
H        -1.98290677594787       2.94358245438910       0.19809889207433
H        -1.38038527071180       2.99990483147552       1.87512359590734
H         2.41322351636968       1.09220737744603      -1.00286251783632
H         2.31294245298085      -0.63335612626998      -1.52934169421002
H         3.48484756800997      -1.35161682155510       0.55787216595796
H         3.56620280643768       0.36553031598877       1.11431723092116
H         4.84665095132598      -0.74388509514436      -1.47624044360840
H         4.93905624709809       0.96238429559315      -0.89485514448250
H         6.02615151801824      -1.52148572824007       0.58659798756682
H         6.99887325068010      -0.29101697982073      -0.30296328515499
H         6.10672540383528       0.18760106613463       1.18769169784754
B         7.55249019574504       1.31238681413640      -3.46429554302881
F         6.51538364706781       2.15517428436880      -2.98338936784535
F         7.45160497994567       0.03701750025519      -2.84947679623604
F         8.81294537936173       1.88901284218776      -3.15459790422844
F         7.43103648827506       1.16730279515350      -4.87168874180193
