40
C10H22F6NP optimized with ForceField in AMS.
N        -0.10271105232232       0.03299305917263      -0.07549101059737
C        -1.01924421898489       0.54033535853357      -1.14887400717611
C        -0.61731014077041      -1.28848683499932       0.41267774449505
C         1.23782778527741      -0.18471717884369      -0.72250776719487
C        -2.49287311825063       0.64121347482539      -0.72054058122503
C        -2.09020432107693      -1.26088756292275       0.86533602979755
C        -0.01046048614180       0.99352618993799       1.07961327868460
C        -3.00054752239046      -0.70927147142438      -0.22673910250645
C         2.37406361457207      -0.64338010578360       0.22532220260944
C         0.59882301932970       2.36944276951655       0.75585565146819
C         3.67067872486816      -0.87072885446044      -0.54725462234738
H        -0.98667563793906      -0.13890810770102      -2.03340218975401
H        -0.69096083775623       1.52936725458793      -1.53104776447991
H        -0.02474223067942      -1.65257009875089       1.27980263117221
H        -0.52731882646333      -2.06261605141329      -0.38458815788924
H         1.57176596155143       0.73921170615443      -1.24466238496565
H         1.14880997645081      -0.94884736998861      -1.52976862425513
H        -3.10236199268930       0.95211903404387      -1.59662454476034
H        -2.63313547687146       1.41908217790727       0.05772483320542
H        -2.20806854793618      -0.67083599669125       1.79801376121032
H        -2.40769874760558      -2.29765588948546       1.10208317863000
H        -1.00604197505444       1.18819374514886       1.52232650973650
H         0.57561368880462       0.54794758234889       1.91160697566370
H        -4.03050113802920      -0.59435608607464       0.17286292242028
H        -3.03761065905141      -1.42659881189050      -1.07597640609770
H         2.57960300118731       0.12338670116938       0.99959149743541
H         2.11235527700418      -1.59738269878962       0.72611404806933
H         0.63526476940041       2.97238367620634       1.68725021178772
H         1.63866091446721       2.28689023359534       0.38344915429172
H        -0.02275725436070       2.93128528448698       0.03069673910619
H         4.47149172010923      -1.18361480546244       0.15566042698735
H         3.53224677355242      -1.67080053872884      -1.30509588676814
H         3.98855878219210       0.06559461070728      -1.05273307516181
P        -4.64139485213799      -5.84675686445636       1.58949088430359
F        -3.55579280529009      -6.28684402690680       2.84583941154141
F        -3.96071213461673      -4.27210436014625       1.56367478311536
F        -3.48761957851367      -6.37416426195107       0.43126086098765
F        -5.69801983058075      -5.39085286338079       0.31430398442315
F        -5.35763860579072      -7.40713868595302       1.63699927578912
F        -5.77956246916337      -5.29661889133768       2.75228660394790
