34
C10H22ClN optimized with ForceField in AMS.
N        -0.89152931425777      -0.14405922578543       0.04095697123440
C        -2.01231948768773      -0.22881868220524      -0.94528199315900
C        -1.21194399204314       1.04484633045042       0.88994464575920
C         0.39897100961854       0.07357576697267      -0.69150348887691
C        -2.81324943691035       1.05605260842340      -0.86413739025166
C        -2.62024194707822       1.50211649071162       0.55774278187891
C        -0.86284569853510      -1.37337764592338       0.89777915378302
C         1.65047338035498       0.15410052501253       0.21618310605886
C        -0.53819372160195      -2.67457258763509       0.14233449485737
C         2.89173188983123       0.54266969919497      -0.59753677838624
C         4.14254498871821       0.56939224108148       0.27740577561802
H        -2.71681770332756      -1.06064320686131      -0.71174753301456
H        -1.66659156034047      -0.39506498076168      -1.99162751478437
H        -1.13020618520225       0.83967142218739       1.98227604425203
H        -0.53635257026488       1.90654167402266       0.68214175100894
H         0.56379830672886      -0.73516180760853      -1.43777383742311
H         0.33303318286077       1.01524015540422      -1.28458905365120
H        -2.38715870760418       1.81283453488508      -1.55954065703170
H        -3.88786071073266       0.89311196705091      -1.09981177130769
H        -3.35179546608591       0.98552241225790       1.21806539513364
H        -2.73621128327070       2.60335508687137       0.66009081936765
H        -0.12941376958867      -1.26097140217699       1.72589244955986
H        -1.84987035767251      -1.50790648405599       1.39693544101603
H         1.50372477354697       0.89976623777243       1.02483886061555
H         1.84017956365452      -0.83328713989044       0.68497779357957
H        -0.65749529946051      -3.53422275847693       0.83492206630565
H         0.51065360275808      -2.68145464713867      -0.21603708864937
H        -1.22075897797689      -2.83227571223798      -0.71696557053929
H         3.04435980980677      -0.19111989600606      -1.41868593329392
H         2.74806618114420       1.54894315722267      -1.04781345290239
H         4.28958729447316      -0.41271391819849       0.77527503304475
H         4.05692468604100       1.36384982574294       1.04920087623276
H         5.03188853716476       0.78035833985668      -0.35243921710689
Cl        6.01385432193941       3.52155250444087      -1.55807009132791
