52
C14H18F18NP optimized with DFTB in AMS.
N         2.25570962425733       0.27423342813234      -0.33925268102943
C         0.96950214652694       1.03832945288478      -0.42064158453838
C         2.77271013304223       0.59733936651056       1.03214505561952
C         1.24196828746898       2.35657608660980       0.29721879384726
C         2.37112553907578       2.04715844120615       1.29171524246774
C         1.98569777434048      -1.19043363812766      -0.51973926256911
C         3.18768667246140       0.76205695642768      -1.39258746585839
C         3.22010331777091      -2.07569738940497      -0.36405650000018
C         2.82012907065447      -3.54506350042431      -0.47451222076157
H         0.20455660177022       0.45975556692495       0.10255214462472
H         0.68195906850327       1.15550184836686      -1.46581219774322
H         3.84892821536549       0.44763427415171       1.06542418592397
H         2.28776330348197      -0.08261486105427       1.73554245131963
H         0.33890812099709       2.70217445083656       0.80268247980682
H         1.54979162744280       3.12720095193065      -0.41226740944352
H         3.21875543584379       2.71477173784322       1.13316626085580
H         2.03710821879182       2.16172574515800       2.32406674444064
H         1.54801078280557      -1.30889402549050      -1.51541791850507
H         1.23403687765297      -1.46761719717983       0.22520288001764
H         2.75759987956911       0.54530561614311      -2.36883448475277
H         3.32822681175035       1.83275110033677      -1.27467806544858
H         4.14535097577407       0.26139453470678      -1.28897032707924
H         3.95817556545996      -1.84522013451296      -1.13456754797789
H         3.68079098870570      -1.89922949905724       0.60854974688004
H         3.70754202978483      -4.16564322151856      -0.35849833179213
H         2.10379039065143      -3.81057800424168       0.30376558964349
H         2.37416341361143      -3.75302268216867      -1.44788637267937
P         7.00893738283653       0.35476309162442       0.69244231011217
F         6.22641816288635       1.14064729943385       1.95829767403946
F         8.44374793732926       1.07671820641573       1.09130719888639
F         5.51380193896898      -0.40747484564336       0.21562007130271
C         7.24683748291151      -1.08276916090235       2.01426757783492
C         6.39767856859647       1.89847774845941      -0.38534892084197
C         7.93045192185016      -0.53837768507643      -0.84019332592381
C         5.95735219214557      -1.75816898769267       2.57607490536800
C         7.26171288580252       3.18438458705080      -0.43194835854421
C         7.15624889931147      -1.60937309797273      -1.65362026649704
F         7.90044641206034      -0.56631762547170       3.06478870835996
F         7.98390234487878      -2.10522589472401       1.54645030687186
F         5.19355466572288       2.30696988078079       0.10391046086329
F         6.13679075587214       1.53489967108031      -1.65810818345896
F         9.06455896078364      -1.11804020295689      -0.41450382015682
F         8.30411935742248       0.41720113024984      -1.71511953779149
F         6.20888096681546      -2.34583686732811       3.74268305096470
F         5.52223573612315      -2.69982908966298       1.73438191136747
F         4.94075836545630      -0.90957816166434       2.76998454357736
F         7.41016855592750       3.68536248667023       0.78968909465881
F         8.46004111319217       2.96939442486272      -0.95386211529159
F         6.64705574507077       4.10979931281745      -1.17998998202839
F         6.71994649901483      -2.59006853703864      -0.86369812730976
F         7.92202695443514      -2.15102034689209      -2.59646883391168
F         6.08470488962499      -1.07953768890857      -2.26039290101991
