67
C19H28F18NP optimized with ADF in AMS.
N         0.80769665555000       2.03713879454721       0.76993401801855
C        -0.70258384294214       1.90689570376364       0.77690056083775
C         1.17349961401095       3.50488247916772       0.96574525806027
C         1.28633547996437       1.57812577930647      -0.59487100697922
C         1.44459536184012       1.21153970226154       1.87623643447791
C        -1.34615487698586       2.47095821100050       2.03179141145370
C         0.55148954410852       4.10532980235479       2.21426027722459
C        -0.96492109041283       3.93734462690054       2.23270724887865
C         2.78844688791447       1.53723280642293      -0.80421332241724
C         1.26030964810710      -0.28974786001015       1.76886944045694
C         3.07756457268211       1.01100823188468      -2.21465292559394
C         1.96616322309897      -0.96742765642007       2.94959245395608
C         4.57137823336772       0.92666680637088      -2.51549156992086
C         1.82842029984939      -2.48535932755266       2.90568012403454
H        -0.93315531585222       0.84286618718530       0.63032174730800
H        -1.04942317523260       2.45928020330216      -0.11180633995790
H         0.81199647132160       4.01881849852064       0.05972835437140
H         2.26714650832224       3.56174622639119       1.00952210901412
H         0.81473236472492       2.26366685969347      -1.31709191493892
H         0.84833402619218       0.58019839775913      -0.74990015409414
H         1.02200266122195       1.57848580643550       2.81713134403677
H         2.50615228805046       1.48558623996078       1.88586665541414
H        -1.06398576911967       1.87059002311657       2.91288682778176
H        -2.43747600096458       2.35748997519904       1.91793038488365
H         0.83139279039233       5.17091869010623       2.22328672524989
H         1.01601618421514       3.67759137346396       3.11606428151847
H        -1.41350499567975       4.54058915715318       1.42144704918044
H        -1.38163291132572       4.31551598300659       3.17971810263658
H         3.27466684093683       0.88077100850924      -0.06617125124232
H         3.23681659354641       2.53442213187975      -0.67772023490887
H         1.69193384845262      -0.67864641623172       0.83069950917236
H         0.19176767337542      -0.56948267770379       1.78224862490362
H         2.58389190899241       1.66497159263195      -2.95675906156434
H         2.61861633293537       0.01063373934008      -2.32617831966668
H         1.54779098420377      -0.57789865639749       3.89476457066138
H         3.03200506293586      -0.67949722572973       2.94580564302418
H         5.08444777547335       0.28387013892422      -1.78429103065898
H         5.04089278230060       1.91995091044873      -2.46401672713004
H         4.74718844073284       0.51414974478391      -3.51986641325976
H         2.26695858220667      -2.89662405215829       1.98196085802175
H         0.76993163646089      -2.79053778129660       2.94322004665835
H         2.34469885300958      -2.95358874320478       3.75690684929315
P         5.20483378511452       3.35291753514067       3.14279122377684
F         5.41387700198938       1.75394328432230       3.56496180899713
F         4.08516337345969       2.84655079130758       1.95032233652604
F         6.28246772671008       3.92244524772257       4.26630958729207
C         3.79387028685253       3.30483244086840       4.55895922494139
C         6.75643248144354       3.08585323627950       1.92878505984705
C         4.76712329335576       5.19614236458192       2.46434327798699
C         4.24873218113342       3.04445116733337       6.03696592381117
C         6.52825466484372       2.40695464474900       0.54827388168226
C         5.29622600703035       6.44112260174656       3.22602162787578
F         2.91374346472479       2.26353826848915       4.27133568709654
F         3.00777328928762       4.43388517788404       4.66441792872090
F         7.65914514778922       2.26808047872199       2.57306011497196
F         7.43162150883272       4.25753755641313       1.67419078884451
F         3.38973943580137       5.36436691454889       2.39027126231918
F         5.19663215476546       5.34101925724886       1.16342574705451
F         3.12615171538105       2.82967635031761       6.79415109362215
F         4.88117089014485       4.12039012097457       6.55393050792728
F         5.03917498135717       1.96227236836911       6.17396713007162
F         7.71880819027451       2.21582172008699      -0.08240706624282
F         5.94112408334196       1.18823527046710       0.68720530623998
F         5.75499594664211       3.15853679019994      -0.27726929721368
F         4.82068336181347       7.57505827759324       2.62887446197420
F         6.64327227048902       6.49932616629622       3.20579595526063
F         4.87502683133990       6.44697091295013       4.51165651592047
