34
C8H20BF4N optimized with ADF in AMS.
N         0.53981643245572       0.12443586347858      -0.29650770698367
C         0.30010487264392      -0.61449823232129       1.01591258722481
C        -0.76530906494929       0.45792688441332      -0.99024178313866
C         1.32841829257934      -0.79978958625457      -1.23330036658915
C         1.38431112618464       1.37527086773902      -0.02646264136076
C        -0.23345287130699      -2.02665939570356       0.86933000893157
C        -1.66936358464470       1.47384428448535      -0.31819956305540
C         1.98053757254293      -0.11429598045712      -2.41860868828011
C         1.10477425924905       2.12232192464666       1.26626031834712
H         1.27666888956423      -0.63379508289161       1.52344909047356
H        -0.38820061082922       0.01429159696862       1.59637757867692
H        -0.48790755541227       0.80949960272182      -1.99437663325844
H        -1.28998915433963      -0.50115439728167      -1.10955990546203
H         2.09533497663942      -1.27806314692009      -0.60535539485575
H         0.60703967961723      -1.56109990015231      -1.56567173073733
H         2.42492443667769       1.01622338039807       0.00133122504565
H         1.24676680391862       2.01640054495862      -0.91067949816400
H        -0.49172147708812      -2.38090691225833       1.87914199687619
H        -1.14497235101725      -2.09730510581079       0.25706436676726
H         0.53643470898869      -2.70612622383718       0.48043935902971
H        -2.60099038794333       1.52656221703376      -0.90316993609665
H        -1.94452791870934       1.18658949070366       0.70625360910611
H        -1.23090158263688       2.48016485314267      -0.30514661100862
H         2.37156333359655      -0.90905470173106      -3.07266988617260
H         1.28791642443587       0.49188917859762      -3.02164806016319
H         2.84012430388669       0.49273496095954      -2.10743085590981
H         1.70777124270030       3.04339849151249       1.22980280574514
H         0.05824553209812       2.41565969441875       1.41053854620663
H         1.46164324280527       1.54826656077350       2.13061602768676
B         3.95431308462636      -0.93803054478095       1.27836329635732
F         5.17534928858559      -1.31500774532844       1.82325544285503
F         3.11469823038208      -2.08154283295255       1.03130521367563
F         4.13050493041739      -0.25083001168449       0.02517873371247
F         3.23448733268133      -0.05670857688602       2.15812777311829
