18
C4H12ClN optimized with ADF in AMS.
N         0.05946698030808      -0.02062271071495       0.08175855167651
C        -0.84440633018220      -1.14106214944412       0.52239190451324
C         0.91482812812065       0.40046275544555       1.24719513084657
C        -0.78684124416684       1.14854035388406      -0.34699973218110
C         0.91781760993544      -0.47166921201067      -1.04738874520847
H        -0.21414509102095      -1.97759308387130       0.85065357241052
H        -1.46163226296527      -0.73482696012498       1.35602663583485
H        -1.45872812157712      -1.44101682964159      -0.33634953183727
H         1.55347416805583       1.23070653611153       0.91899744830485
H         0.21222277212902       0.71267657024426       2.05316667778750
H         1.52932438260057      -0.45833119341403       1.54668861860378
H        -0.11496768824981       1.95372088292760      -0.67184815470171
H        -1.42108632625715       0.82234828693838      -1.18128985331302
H        -1.39032317965080       1.44014590400892       0.54259674343402
H         1.57191825120613       0.35640533310065      -1.34795016968086
H         1.51957682092586      -1.32665078581717      -0.71478734302831
H         0.27378225102971      -0.76694046707555      -1.88508096852484
Cl       -1.95081883524117       1.03045502395343       2.71199357826375
