37
C11H20F3NO2 optimized with ForceField in AMS.
N         0.26147144931812      -0.12543694527795      -0.19372798874955
C        -0.60021066366329       0.69329725599821      -1.10640659078253
C        -0.50078990314752      -1.34775994455449       0.22209941043039
C        -1.96434285057872       1.07270662755805      -0.50747122346826
C        -1.88142839544315      -1.04755299232948       0.83947766258180
C         0.67630116123304       0.64720026582386       1.02804591713319
C         1.45281650405091      -0.55685243400008      -1.00257981909140
C        -2.72998282088129      -0.17720225221653      -0.08363745725485
C         1.54436382177887       1.89006993476459       0.76751604544271
C         2.52902440006014      -1.35131710879949      -0.23938650013855
H        -0.80589679906500       0.12848333328901      -2.04612181466106
H        -0.08265997089547       1.62026105468815      -1.43162472003981
H         0.06838145183844      -1.93379489998561       0.97587983133765
H        -0.66492957487636      -2.02088931609357      -0.65103108507046
H        -2.55755536887645       1.61109542650128      -1.27801559101050
H        -1.84773092684340       1.76820744490700       0.34881116705258
H        -1.77490001382863      -0.56193081353742       1.83165668994228
H        -2.41272491113193      -2.00862135862706       1.01141760259980
H        -0.20298512615765       0.99509018768552       1.60383686488490
H         1.22586022103327      -0.00997914066079       1.73620036873556
H         1.12652903997787      -1.19252392063100      -1.85761600567296
H         1.94808063238948       0.32034347667426      -1.47433188861853
H        -3.66261926790976       0.12061191068052       0.44209524962949
H        -3.01610177851225      -0.76205813869039      -0.98541604700352
H         1.81644744996128       2.33969426034106       1.74457741944632
H         2.49263762590307       1.64039585750455       0.25310579713129
H         0.99201900709955       2.66155725895879       0.19541877482779
H         3.32994895053061      -1.64064937055021      -0.95182303398464
H         3.00637636797863      -0.74258483408360       0.55403013516366
H         2.12227994214316      -2.28626542587490       0.19334075589386
C         3.26018598217362       5.02494297431612       1.53175130713027
O         2.81673762730076       4.91779530677235       0.39939686896783
O         2.51396339825681       4.88617188888174       2.48746524295472
C         4.71196906203649       5.32734027743745       1.75549063954509
F         4.83257353888736       6.50260557220222       2.47383601374050
F         5.37172850702389       5.46842329126637       0.54692166656456
F         5.29471751113550       4.29619203986145       2.46908968481041
