45
C13H25BF4N2 optimized with ADF in AMS.
N         1.07705287302440       2.23717727570301      -0.24349561369849
N        -1.05065599819053       2.53938348119377       0.03883422146508
C         2.37861443051763       1.97462259997054      -0.88519934476800
C        -2.49568674235756       2.59515345150004      -0.25021523312909
C         2.98048476452901       0.66543231666865      -0.38245212715236
C        -3.01070348415261       1.25379167036417      -0.76213004563666
C         2.07960804107875      -0.52817730208753      -0.67939311191625
C        -2.67682348720310       0.08078715690547       0.15407937208471
C        -0.09180574557880       2.36738084947623      -0.88513977666993
C         0.85884178410596       2.31071423541087       1.11697830360840
C        -0.48134335792842       2.49720246787288       1.29410483562178
C         2.65839107261930      -1.86795948934143      -0.23763974232240
C        -3.10152306607579      -1.25630282027161      -0.45060456399495
C         1.71055229025477      -3.01637670034472      -0.58019510378503
C        -2.70981894612026      -2.44196495717072       0.42644475546119
H         3.02746635257221       2.84001125106301      -0.67770010240058
H         2.17426535775910       1.90939229068004      -1.96427111289048
H        -2.65565044251563       3.39535097175154      -0.98781733759801
H        -2.97905246917115       2.89078831285464       0.69335420318254
H         3.20416605091109       0.73438188174486       0.69907294981251
H         3.95424467853079       0.54771067057485      -0.89045108544280
H        -4.10361810998668       1.35216694974641      -0.88743336570283
H        -2.58307937853447       1.07195880406228      -1.76113999696330
H         1.86289136750579      -0.55108356349847      -1.75946934616610
H         1.09823255061612      -0.38527167685272      -0.19210696738076
H        -3.14679620084425       0.21905284340607       1.14847509231474
H        -1.58413788610335       0.04461491025697       0.31462747268633
H        -0.26944186099437       2.29634399626017      -1.96287826432335
H         1.66460567544829       2.22011263147520       1.83416423060863
H        -1.07383332528681       2.59716013614267       2.19480495029594
H         2.85786352892998      -1.85361372953531       0.85069000900615
H         3.63446042240710      -2.02915569918096      -0.73198174337710
H        -4.19376114196585      -1.25562108518916      -0.62108241541054
H        -2.61776236370440      -1.34886293832007      -1.43763229739702
H         1.51097893368517      -3.04255622844455      -1.66321720608987
H         0.74020752542617      -2.88363970497259      -0.07612534335494
H         2.12233771355424      -3.99152142141709      -0.27855081794799
H        -3.19184627157892      -2.38917337474167       1.41697286441762
H        -1.61895395121443      -2.46258270026946       0.58073817067568
H        -2.99670890250364      -3.39676888713686      -0.04062242153693
B        -0.32177794935229       0.50744829400092      -3.58350172586682
F        -1.13796786758490       1.70844480382513      -3.51189174199691
F        -0.58811388747119      -0.25353395630877      -2.40386457938079
F         1.04665523342115       0.93623260279741      -3.54816374342176
F        -0.60412629107763      -0.21905944622410      -4.73286831941925
