23
C7H10BF4N optimized with ForceField in AMS.
N         0.14564943343898       0.02797511889327      -0.36747356805689
C         1.58799640305713       0.05295672487362      -0.64130711543913
C        -0.54246593914942       1.20374864833856      -0.23740970356670
C        -0.49842665908239      -1.17145481569073      -0.22719452855604
C         2.37637248053385       0.04361287908488       0.66383667347984
C        -1.91298409936166       1.19714982722248       0.03404346860351
C        -1.86846071641844      -1.21318057881892       0.04405017271180
C        -2.57792008602945      -0.02011446047256       0.17363340728433
H         1.88017851318594      -0.82504306675858      -1.25676970335628
H         1.85885431975654       0.95847505514403      -1.22725389461180
H        -0.03283126531867       2.15496718932245      -0.33759366822031
H         0.04624118960135      -2.10395015317825      -0.32051885694989
H         2.12700477462350       0.94294327309488       1.26538542362849
H         3.46497183775798       0.04939158983316       0.44516752258668
H         2.13413279771407      -0.86776007866150       1.25025280756353
H        -2.45488151410831       2.12882436536082       0.13658835159984
H        -2.37585721598051      -2.16320536571164       0.15399605413452
H        -3.63933980493206      -0.03869400958451       0.38570978498585
B         3.79595789111498      -3.47527403128468      -1.57340938318499
F         4.97730840307107      -3.01150880161400      -2.20955985591948
F         3.91077720316095      -4.86675000886167      -1.31774715930837
F         2.67958065554031      -3.23988375568560      -2.41841057472647
F         3.61730553272426      -2.78450306694552      -0.34691041778203
