29
C7H16BF4N optimized with DFTB in AMS.
N        -0.13744389524670       0.29582597203733      -0.38984360498854
C        -0.54783902829916      -1.14027524913630      -0.23380316508227
C        -1.29037156518811       1.12063113318246       0.15391765312188
C        -2.06519697242945      -1.12018042451221      -0.33440758731851
C        -2.44769209276095       0.15757096642123       0.40788287806360
C         1.10065347827776       0.60809684961177       0.38989410742047
C         0.06299850425626       0.60826489582803      -1.83259436188593
C         2.32141111808997      -0.19998618830748      -0.02776816228014
H        -0.22632711083711      -1.47967161887156       0.75459064237508
H        -0.06304864038953      -1.74341921142957      -1.00172279494384
H        -1.55107174061605       1.87520023491019      -0.58972476851879
H        -0.96479690527768       1.61711302144388       1.06897578831797
H        -2.49866410609525      -2.01156571222213       0.12011443006823
H        -2.38086304755719      -1.05811849817846      -1.37752607472214
H        -3.37550317864333       0.58231552353082       0.02247400826898
H        -2.55573625571824      -0.03832155022785       1.47813062010066
H         1.29458325219418       1.67603924115871       0.26092271676959
H         0.87336167271446       0.41539477017949       1.44176825273086
H         0.84977026554896      -0.02441231013541      -2.23757871146242
H        -0.87248202115838       0.42722784841219      -2.35880344257224
H         0.32497613414668       1.65907626836002      -1.93029468601066
H         3.13456392160816       0.04397382388371       0.65555846464744
H         2.13067509365037      -1.27033482632899       0.03335426729121
H         2.64093723674618       0.04686112959917      -1.03850543212511
B        -2.99800679633830       2.04632583752272      -2.51614540197100
F        -3.72352601537150       2.52290621998214      -3.56569431962013
F        -1.69409183806003       2.61942959631228      -2.47694205811428
F        -2.80661219434372       0.63228591248443      -2.61838050389184
F        -3.60635499070233       2.29425398418938      -1.27447249396816
