37
C11H24ClN optimized with DFTB in AMS.
N         2.05328774606077       0.31938915173538      -0.02726788542572
C         2.26355282273925      -0.99482499313097       0.67954571968411
C         3.15219250479637       0.42903219459132      -1.07218660938385
C         0.72202731852037       0.36009705379149      -0.70990516538264
C         3.71216464907499      -1.37329196904777       0.41500255645131
C         3.95536509801629      -0.86304616823833      -1.00110802586261
C         2.18088487739031       1.44735875677670       0.93850461318963
C        -0.47017533302198       0.23162790099986       0.23749751011299
C        -1.76605055861773       0.13217181878721      -0.57604540419396
C        -2.98467369924914       0.01472011745888       0.34451468228400
C        -4.28224463591769      -0.08238011817602      -0.46418648285972
C        -5.49948754557269      -0.20076115489732       0.45108469596272
H         1.58451341925298      -1.72952691116658       0.23977256716274
H         2.03135753720468      -0.87567979420451       1.73735448368559
H         3.78513751859963       1.27720889151465      -0.80189844889704
H         2.70177121840250       0.59774664284087      -2.05048879888174
H         0.71150784777011      -0.45640152595922      -1.43725037580102
H         0.66728656076217       1.30982125929241      -1.24849213649821
H         3.85581783148833      -2.45041719530167       0.50301525979523
H         4.37708854893392      -0.85487771367222       1.10989241785624
H         5.01271970860550      -0.65123717528886      -1.16562007899175
H         3.60719036850026      -1.58446516436169      -1.74521883784988
H         1.46522676749032       1.31955039576617       1.74702571578180
H         3.20550202678584       1.44648401885048       1.32474911471994
H         1.99014277776172       2.37935762245311       0.40999864348137
H        -0.36556701197957      -0.65906609689506       0.86266057537070
H        -0.52596890248728       1.10268562546582       0.89516993253259
H        -1.71695568650345      -0.74222791356081      -1.23369071428565
H        -1.86726458271055       1.02085026237692      -1.20783463078554
H        -3.02782805790685       0.88864555617114       1.00315019847292
H        -2.87864179335849      -0.87406338500952       0.97573350320319
H        -4.38473922477230       0.80727838924719      -1.09450150060456
H        -4.23494951332465      -0.95563110868572      -1.12344135695378
H        -5.57435378796986       0.67106833528755       1.10218777993919
H        -6.40913383482775      -0.26826855266570      -0.14548163703753
H        -5.42452232355801      -1.09339180769525       1.07340922519614
Cl        5.36562467772167       1.35887597865005       0.97051471311281
