21
C5H9BF4N2 optimized with DFTB in AMS.
N         1.25174851968267      -0.25306034126631       0.14767665222997
N        -0.88881443639229      -0.46247137190230       0.13230267361846
C         0.24577144885939      -1.04027476616585       0.51440887203521
C         0.75064860877165       0.84345803720064      -0.50435133772655
C        -0.60133150976809       0.71038082382346      -0.51445400544122
C         2.65513740181141      -0.59905791322546       0.30213141330799
C        -2.19545626620810      -1.08855287304945       0.25601657954023
H         0.33388078509106      -1.97962101762681       1.03427732065401
H         1.38806301924094       1.61170839006485      -0.90562775398013
H        -1.36951224543095       1.34037257592582      -0.92748576431877
H         2.72807465435842      -1.68470740540415       0.37803562204866
H         3.20423720017980      -0.24753997925996      -0.56990312273172
H         3.05357012339575      -0.13033259357601       1.20326711040675
H        -2.65926234778643      -0.79187578703536       1.19788760527010
H        -2.81933619047308      -0.77363520497379      -0.57856889596442
H        -2.05144213656322      -2.16996142151603       0.23239562657188
B         0.49013658092244      -3.67637994784302      -0.54387763679293
F         0.34099607625321      -2.52208673670087      -1.35854233382958
F         1.63808574189955      -3.45372682998042       0.26099539314980
F         0.59440536707948      -4.81197565845336      -1.28499011497086
F        -0.63548671302358      -3.70130419703561       0.32168025822313
