55
C15H32F6NP optimized with ADF in AMS.
N        -0.83562754845424       0.85769732322471      -0.06956778427832
C        -1.21911204678030       1.89939033476200       0.97116234990585
C        -1.98998988568486       0.67279280171805      -1.03548692149256
C         0.35561050889395       1.37048167764386      -0.86919303700986
C        -0.50437259456017      -0.44968900219091       0.64602721483191
C        -2.51558236941334       1.56251513139317       1.68863755478030
C        -3.30481224888620       0.32987818273566      -0.35012250797607
C        -3.67034445833701       1.37178476498020       0.70731900907072
C         1.59100964480560       1.67589407743335      -0.04138267814625
C         0.18675086981748      -1.50633065237839      -0.19537525436251
C         2.82648778410016       1.86028130267891      -0.92501093853796
C         0.27730925034806      -2.80516768535507       0.61394945684691
C         4.06856217031967       2.16919512624225      -0.08673364073379
C         1.06814331026270      -3.89293157342717      -0.10906692883324
C         5.33715785182229       2.27131156932344      -0.92837362731343
C         1.18735265210335      -5.16987459307272       0.71920898272425
H        -1.31534421468175       2.84961969447572       0.41818017969409
H        -0.38012950643371       1.96000198941566       1.67697928768766
H        -1.68524635111573      -0.10076148716750      -1.75480226024794
H        -2.08291430820874       1.62933758699287      -1.57561769471097
H        -0.00714590364572       2.26722244498426      -1.39780288399002
H         0.56240285136146       0.59983042976138      -1.62708281643789
H        -1.45668882706253      -0.83447019434557       1.02854801049720
H         0.11080609361386      -0.18601227422743       1.51339637013253
H        -2.72282908678033       2.39447077940523       2.38165623235821
H        -2.37791632405630       0.67177419671064       2.32397218481752
H        -3.25870255910144      -0.67651855796511       0.09868779767129
H        -4.07773753623899       0.27838079382427      -1.13573190135029
H        -3.89253862840246       2.33377679860157       0.20725811077132
H        -4.58461552589219       1.06865697719335       1.24170655536645
H         1.43631685701930       2.58798340192500       0.55739159195625
H         1.79363746648942       0.86867381469026       0.67631113637453
H        -0.35095107631701      -1.69868403403783      -1.14194710391982
H         1.21020500800616      -1.18361467680369      -0.44663982797829
H         2.66434855390251       2.67016011596386      -1.66188291281513
H         3.00389169006370       0.93577194121877      -1.50719557568010
H         0.75469633473541      -2.58117353904771       1.58243456846442
H        -0.74190066588483      -3.17500379256927       0.83415059629279
H         4.18520811907011       1.38784161033046       0.68429941109369
H         3.90795946242384       3.11399035160397       0.46355464849634
H         2.07877266572350      -3.50818962977705      -0.33625341779953
H         0.59044805114752      -4.12051078173333      -1.08074695015134
H         6.21007778488310       2.49924962775309      -0.29783942021805
H         5.54123584919592       1.32383342045085      -1.45349067480746
H         5.25315957192748       3.06471642757876      -1.68917238055725
H         1.76155407222203      -5.94037474821786       0.18217705889662
H         1.69667865888601      -4.96762545740517       1.67457018291678
H         0.19381592875859      -5.58702086565996       0.95063789999662
P         1.95287395532724      -0.12354973744759       3.71696636330961
F         1.56632871353994       0.40524396249014       5.21546352382843
F         1.14967494258299       1.20604245554755       3.04656201810799
F         3.34749093196956       0.74174746370412       3.71785120639213
F         2.29672044986728      -0.64027303546863       2.14730478705662
F         2.70788979141059      -1.44497345749082       4.31489980512389
F         0.51286850383707      -0.96695152996861       3.62488787718514
