28
C10H12F3NO2 optimized with ADF in AMS.
N        -0.29575986483252      -0.37632034229201      -0.03561988127342
C         1.17267398006071      -0.53324686965167      -0.17717655710968
C         2.00174460257094       0.61571148844981       0.36728169528301
C         3.48276267618365       0.35887937781079       0.09059422985298
C        -0.81887072539046       0.49098361060078       0.86156585651995
C        -1.06775298799214      -1.34600803376527      -0.59348486602978
C        -2.20504107165031       0.51788000167796       1.06337091164064
C        -2.42297650699011      -1.37745072906553      -0.39545939179010
C        -3.00804229060301      -0.41053374503201       0.43955724053560
H         1.39504313624825      -1.46198476705939       0.38108029662145
H         1.37069534805228      -0.68630608190653      -1.25061887415815
H         1.83894781702011       0.68998395363682       1.45488110907717
H         1.69383900776298       1.56818661644088      -0.09987454953391
H         3.79888084737516      -0.60322447324800       0.52238045719136
H         4.10233505468958       1.14788996090224       0.54034921136577
H         3.69140763812383       0.33601081297564      -0.99076648946367
H        -0.17013204838420       1.27352301435365       1.22908830622380
H        -0.53833955196843      -2.07930869121956      -1.19779727084979
H        -2.61238471848523       1.25796228357197       1.75095875366986
H        -3.01648356621506      -2.15609523991637      -0.87214279372552
H        -4.08720093104847      -0.40431065419041       0.59976023193046
C         0.04383267205386      -1.55698128615150       2.92593350196316
O        -0.08875160198732      -0.29224165724741       2.91213713439769
O         0.01737886201345      -2.39030775944208       2.00286404414511
C         0.31280316223939      -2.10646590513797       4.36773474841528
F        -0.62246154258021      -1.66487921853570       5.26293166641537
F         1.53988983183318      -1.68238318633771       4.81644202079354
F         0.31426845860010      -3.46395735872141       4.42581701499179
