58
C16H22F18NP optimized with DFTB in AMS.
N         0.54260637103273       0.08465580179377      -1.15882889372475
C         0.08938784771745       0.82711489405018      -2.38837890073600
C        -0.40284947715878      -1.05585681193681      -0.91810184684824
C         1.91165177030620      -0.48235512610109      -1.45249276826530
C        -1.35328713894357       1.30454019867068      -2.31523409115965
C        -1.86073821653095      -0.62150889031850      -0.81576787267833
C         0.58159746124367       0.98834981955569       0.04194464423717
C        -2.29790797467122       0.13038526152868      -2.07117317242635
C         2.52551901406289      -1.32746587349050      -0.33988912164279
C         1.64761090476003       2.07425053098565      -0.01729711971123
C         3.94980955657216      -1.71042272704274      -0.74695548251213
H         0.20363022249512       0.13725783551881      -3.22566896724822
H         0.76491071631053       1.66813707383109      -2.53949698787054
H        -0.09600921973892      -1.55643106851810       0.00192017334331
H        -0.27767810602316      -1.74536801261869      -1.75741549803364
H         2.56173793014329       0.36298796039903      -1.67777512023634
H         1.81385464096715      -1.08157653582819      -2.35956659483311
H        -1.58212846807508       1.77231616931008      -3.27605835773077
H        -1.48150020786396       2.06354682191711      -1.53854665113794
H        -2.01477165952261       0.00001593096590       0.07082765894417
H        -2.46102884105830      -1.52695842155042      -0.69399605665000
H        -0.40293419274275       1.44947480008838       0.13306063095264
H         0.74106382566131       0.35481203884092       0.91764352204751
H        -3.32149721769153       0.49106502277872      -1.94835587427565
H        -2.27316888422544      -0.54567330860213      -2.93119283680033
H         2.55755197093203      -0.77297263187794       0.60186461546052
H         1.94198312937134      -2.23833496149108      -0.17937193664209
H         1.47408440500013       2.75106418535666       0.81916253941379
H         2.64984462299708       1.66251087978686       0.08127907889921
H         1.59379121170555       2.64994350310105      -0.93892895284790
H         4.39914299239995      -2.32917044911092       0.02867676667987
H         3.94156523619755      -2.26902817226194      -1.68212516568667
H         4.56013040234235      -0.81811690382981      -0.88297656517407
P         2.92990071602681       0.69660875352009      -5.43547078670202
F         1.61262016123066       1.61167041214934      -5.90056781315945
F         3.53121195900112       0.62419951395458      -6.97768126478762
F         2.37176755490283       0.77053633456650      -3.80489142472407
C         3.77864906476347       2.44377835154005      -5.15563158071624
C         1.73692384830068      -0.88704642821068      -5.76560572356671
C         4.38764968121413      -0.51039992423635      -4.72265990217810
C         3.24263144322545       3.31706174367567      -3.98270520277808
C         2.22237298103327      -2.18233083671783      -6.48747771704596
C         5.59595312463108      -0.12664584612410      -3.82543610223441
F         3.62433640983828       3.17551453451271      -6.26891836263969
F         5.10317692445642       2.31416004869997      -4.95166065489894
F         0.69645551512346      -0.47176937093436      -6.50574806154081
F         1.19857064392805      -1.31198476148045      -4.58635812867752
F         4.89012348473373      -1.22802605270126      -5.74070907333987
F         3.68988965991598      -1.37992016973517      -3.93516722045767
F         3.73566713035571       4.55168009611309      -4.05251115255090
F         3.59233269972658       2.81407388650266      -2.79214722811819
F         1.91093183398060       3.41408414795409      -3.98742842264119
F         1.15057944420118      -2.85902154697780      -6.91738224009999
F         2.97858926626931      -1.91333160670440      -7.54326613663992
F         2.89430167503295      -2.99467147885542      -5.67791965004163
F         6.60409783696388       0.39261575807278      -4.50611780746198
F         6.05195589940808      -1.22018293677827      -3.20177605604833
F         5.22324878186407       0.73225224179415      -2.86947957635694
