25
C5H9F2N3O4S2 optimized with ForceField in AMS.
N         1.02169328027026       0.02239162912715       0.00089114662206
N        -1.20034781907837       0.03105458590069      -0.01034858737730
C        -0.09227841767746      -0.73549685826305      -0.00198876044617
C         0.60613620306173       1.30421297723504      -0.00600820659083
C        -0.77456656870112       1.30958305559731      -0.01302125516713
C         2.40293454577687      -0.44094599498293       0.01426948434348
C        -2.58550645202284      -0.42148461125501      -0.01150948069023
H        -0.09643494112082      -1.81873340209778       0.00377389647554
H         1.25709620736171       2.16911231157772      -0.00493124062169
H        -1.41871083538491       2.17953033070321      -0.01825306620190
H         2.44219461053048      -1.55125401369580       0.01434711495909
H         2.93216033766988      -0.06274106869554      -0.88564514569861
H         2.91374956221295      -0.06332046295869       0.92493658513007
H        -3.10422738144329      -0.03677769759401       0.89173094415718
H        -3.10115920315292      -0.04217060496398      -0.91873678870995
H        -2.63282242436237      -1.53146651597762      -0.00818029413746
N         7.63882647773087       0.98227167702648       0.24574086145409
S         8.25498427684860       0.45811053943571      -1.17673071163993
S         6.51108646330476       0.11606985219195       1.05670999177175
F         7.08414671529859       0.58609387198676      -2.36619877886707
F         7.27804144631947      -0.97252820569644       2.07029894592880
O         9.44232394629651       1.29787332608637      -1.55306972199520
O         8.66955316076165      -0.98156531923544      -1.05453302960461
O         5.64319542822301      -0.64217232512268       0.09191539247293
O         5.66531033377678       1.04235081787058       1.88347124893308
