46
C14H29NO2 optimized with DFTB in AMS.
N        -0.13799122084860       0.37813297981063       0.07393204731307
C        -0.35479902880229      -0.08123778666000      -1.34220470557122
C        -1.46721154719074       0.74284867334014       0.66142024794134
C         0.51706873740231      -0.68130243080043       0.92410281897543
C         0.72159209646204       1.61391048936239      -0.00921860438513
C        -1.32129248901618      -1.24836419566348      -1.44571927732664
C        -2.50110910175948      -0.37704522336727       0.57660055897720
C        -2.67957881051802      -0.86688812898607      -0.85980710542398
C         1.87680277985804      -1.17979700279438       0.41936372629893
C         0.88632914656525       2.39178893073137       1.29184979558485
C         3.07756338560124      -0.59143910454930       1.17116283511950
C         1.94336036417311       3.47695832428829       1.07909005153718
C         4.36265969682211      -0.85126549503930       0.38656540019219
H         0.61985529122942      -0.32236690344773      -1.76665981467173
H        -0.73985836467257       0.77926687701963      -1.89334460399200
H        -1.82241173848909       1.61815276360008       0.11076722612812
H        -1.30973872993922       1.02000701166010       1.70570305632176
H        -0.17999629597965      -1.51915140585149       0.97067091947519
H         0.60362607348797      -0.26760633611340       1.93236938558823
H         0.27278197477067       2.25639410723267      -0.77006572559249
H         1.68767973277203       1.28490209095925      -0.39885631503986
H        -0.92690471348813      -2.13668514249874      -0.94432116190542
H        -1.43038637031709      -1.48753067423964      -2.50643130028005
H        -3.44570363667662       0.02459722327775       0.95393505157339
H        -2.21658604116254      -1.21080741912191       1.22459914631072
H        -3.12803479174465      -0.07201074201586      -1.46420327649793
H        -3.35369655787820      -1.72681068771140      -0.87274492723030
H         1.99694553655984      -0.96032185357756      -0.64221482972303
H         1.89059230549928      -2.26873071434228       0.52787926817561
H        -0.05671318965354       2.86606585577408       1.58111636069279
H         1.20137154233385       1.73989975560457       2.11130116181110
H         3.14353680598600      -1.03358999450849       2.17165210145713
H         2.95516513284956       0.48780218481403       1.29373955031889
H         2.06218945995324       4.06325751419502       1.98991426032883
H         2.90306841611231       3.02789112932799       0.82354371797468
H         1.64582063903575       4.14294315779431       0.26912153972953
H         4.29018214189243      -0.38638230433537      -0.59780866878510
H         4.52444952434394      -1.92230337437641       0.25810289739544
H         5.21649547238612      -0.42858424790038       0.91644461225661
C         3.17134802877545       1.84137368249031      -3.97990293927701
C         2.18864735939843       1.35839384746493      -2.88856713378200
O         1.06110519028857       1.88945429722043      -2.87223606809026
O         2.61216711215474       0.48007964761874      -2.09835650154236
H         2.64573671799890       1.93990918865778      -4.92790154369444
H         3.55221619937287       2.81994892649756      -3.68821211333528
H         4.00222569235111       1.14570118745884      -4.07878497693152
