33
C9H14F2N2O4S2 optimized with DFTB in AMS.
N         0.52404172867017      -0.12336061237283       0.94915133873890
C        -1.68927835451339       0.01263431747307      -0.12913388431121
C        -0.86749503386310       0.30803614108139       1.12753440224549
C        -3.17261781405233       0.27819113397604       0.14578444690716
C        -4.01661739048988       0.00306322892543      -1.09593094030002
C         1.50894084512339       0.78328480020768       0.86484131836187
C         0.78721955016854      -1.43759392148642       0.92330197471892
C         2.82147534029212       0.38084051841857       0.74426785527717
C         2.08626800535434      -1.89103914173154       0.80266736302123
C         3.12343159353450      -0.97652298079114       0.71688077362887
H        -1.55642449144793      -1.03615914860895      -0.40694777295533
H        -1.33208762879347       0.63540062654256      -0.95596906111561
H        -1.26930975739032      -0.24607468132994       1.97871491841906
H        -0.86993807062408       1.37571642690583       1.35567786237777
H        -3.50148411662916      -0.37093360000707       0.96259359885324
H        -3.30667730759021       1.31818525425866       0.46146362278666
H        -5.06704373840371       0.19420244818958      -0.87773863392641
H        -3.70942370806690       0.64657406912896      -1.92184239234475
H        -3.90979229917506      -1.03693930714122      -1.40583145979326
H         1.22519796926800       1.82804836081477       0.90551335120664
H        -0.05309429138088      -2.11245288275632       1.01445182666995
H         3.60173013148620       1.12869202155003       0.68301250005854
H         2.27090087655415      -2.95755709459037       0.80285527927735
H         4.15126723132181      -1.30838123443444       0.63575698779247
N        -1.49692026312004      -3.09859505794655       4.13785944067212
S        -1.81540219967997      -3.46885908663748       2.63157953789125
S        -0.64704443559347      -1.78106122058498       4.37242230708982
F        -0.37032355431533      -3.99987791624912       2.04649016266302
F        -1.70708182251744      -0.57357734788216       4.04467265579521
O        -2.64949073778484      -4.61717263626370       2.60177977088414
O        -2.11182674425411      -2.37301404645536       1.74274238323981
O         0.41603578483824      -1.52048782126120       3.43400838796369
O        -0.37762077392580      -1.64665942334174       5.76033275260623
