32
C10H19ClN2 optimized with DFTB in AMS.
N         1.86873891230889      -0.91507486996916       0.11289364913371
N         3.14113834372409       0.83531609495168       0.06803394251392
C        -0.42503631102010      -1.81817842242896       0.19275936964390
C        -1.09205912210325      -0.52185497550451      -0.27633045880297
C         0.99163377165311      -1.97538390014079      -0.36327079627376
C        -2.52869629615060      -0.41632926906346       0.24424140851465
C        -3.19159315639475       0.88479917012440      -0.21896596382071
C         2.21564511083566       0.15077925130415      -0.62780779204080
C         2.72162212559551      -1.00511155106750       1.19322647139682
C        -4.62450499322695       0.99554915244522       0.29910447653714
C         3.52323372818958       0.08240850883892       1.15940563353071
C         3.92100460116401       1.90276893356776      -0.53212272084491
H        -0.38750714985166      -1.83975664638099       1.28663580570267
H        -1.01418764421209      -2.67712431168429      -0.14177774455955
H        -1.09551130693531      -0.48956321095577      -1.37107833437505
H        -0.51256795950974       0.33557583356724       0.08279599557907
H         0.99869924814093      -1.93439697710189      -1.45647619870836
H         1.41476631694449      -2.93111071022583      -0.04316341796618
H        -3.11040517023818      -1.27165476327396      -0.11611927497103
H        -2.52262215176372      -0.45445566176857       1.33917415630266
H        -2.60726461871252       1.73881544922941       0.14067489887115
H        -3.19639101337964       0.92064218335620      -1.31359705991827
H         1.59986559057148       0.58108893227589      -1.39610232619059
H         2.67156895510137      -1.82520966774220       1.88764718991948
H         4.30907986438708       0.40173138178700       1.82110615785957
H        -4.63901771943341       0.98240294503499       1.38994068526132
H        -5.07478809154113       1.92761951918246      -0.04308855443535
H        -5.22822105042080       0.16341433384454      -0.06581966099877
H         4.43674461666552       1.49033415886106      -1.40408007546330
H         3.25756335586424       2.70885941859672      -0.84585612759761
H         4.64010738598223       2.27460080605548       0.19489104407949
Cl        3.46489611246564      -0.79191215241524      -2.39056318197906
