37
C11H23NO2 optimized with DFTB in AMS.
C         2.82746262472372      -0.37136010170986       1.11141104070409
C         1.76533792219352       0.72814971434491       1.06480339405890
H         1.28110396956388      -0.30697743560822      -1.38761112603411
H         0.30782197131687      -1.65002792326724      -0.68745545388079
H         3.08581063756510      -1.64082155246435      -0.65433785182212
H         2.12619760521479      -2.38410032298891       0.63888686625189
H         2.91647739125610      -0.78080845222829       2.11943946525304
H         3.79835752285870       0.03734635916882       0.82469409789266
H         1.55233654200774       1.17679520747437       2.03582756042947
H         2.04489632269861       1.51350000068801       0.35815085317484
H        -0.95283112966358      -1.26285679778740       1.24704965885547
C        -0.12142156052399      -0.69121682126297       1.65176659932785
H         0.59038932734700      -1.39255421272854       2.07697529112110
H        -0.46351703066106       0.01936907817603       2.40267202970270
C        -0.41149728640258       1.06632374267132      -0.03695465595148
H        -0.70318895846780       1.71575009591980       0.79323358243495
H         0.15673525649551       1.66328213152017      -0.75653486816464
H        -1.85322708213778      -0.53456754293250      -0.28507423767949
H        -2.52814934607285      -0.73192072560796      -3.82882430142959
C        -1.54118557553756       0.32541271852192      -2.22447696899515
H        -1.65326581828548       1.31105519193414      -2.68994125259788
H        -0.55616872156347      -0.06059327853596      -2.50143411502460
C        -2.60901604927633      -0.63521509338851      -2.74607833462038
H        -3.60676385491748      -0.26981501355020      -2.49982529962918
N         0.53461005070558       0.05605339837446       0.54321087418758
C         1.06748590179887      -0.88873432721647      -0.48818607002352
C         2.34574110459564      -1.44628031092040       0.12319182519070
H        -2.47228420331268      -1.61722373875551      -2.29069981334986
C        -1.65192824064395       0.45455328399854      -0.69970665131324
H        -2.50807115679883       1.09111718774816      -0.45716477316925
C        -1.34936527780063      -5.00216621943206       0.03750246796738
C        -0.79740061584013      -3.57163343852478       0.22053186493492
O        -1.39988012165653      -2.64819176579353      -0.38133961155859
O         0.20510998242700      -3.44409728809308       0.95138167440045
H        -2.19381409634377      -5.00154680062221      -0.64853155171449
H        -0.55690080269420      -5.64232435377054      -0.34781147754861
H        -1.66154510596799      -5.38525854905112       1.00816382881896
