37
C11H24ClN optimized with ForceField in AMS.
N        -0.56834087046516       0.11038937501800      -0.09568800073786
C        -1.57102622906878       0.57853612663891      -1.10841366066118
C        -0.92847739124279      -1.28128306098340       0.33477911000231
C         0.76143448956411       0.06717105889715      -0.79858675427408
C        -0.52775463639650       1.01280415419660       1.10820063470490
C        -3.03094543989093       0.50218498339047      -0.62980372070614
C        -2.38207561138217      -1.43355083260976       0.82706922443110
C        -3.37863842974292      -0.92109472560943      -0.20776339885809
C         1.97668076624011      -0.33015890239382       0.07792505040997
C        -0.08154007307560       2.46214529151660       0.84210200612064
C         3.25456248975318      -0.40176569558399      -0.76932289986370
C         4.45454727511089      -0.83304162322363       0.07060745494197
H        -1.50376035046038      -0.04544799697765      -2.03080030058642
H        -1.35873550840421       1.61456131425246      -1.44491275151284
H        -0.27543992517133      -1.62384556579370       1.16557045574023
H        -0.78283989819545      -2.00005914801301      -0.50434310936733
H         0.98255776876749       1.04847398321888      -1.27491331122913
H         0.71642578950188      -0.65344866961844      -1.64843224701666
H        -1.51783292394668       1.07490914437886       1.60046678635219
H         0.13732715600142       0.58882349567498       1.89174342094938
H        -3.69907705994132       0.79952923371798      -1.46705594665912
H        -3.22211416578764       1.21311553974135       0.20030262517212
H        -2.53020758828798      -0.90777235045871       1.79326179086040
H        -2.58438813561097      -2.51067025946069       1.01450192253948
H        -4.40329924093824      -0.94104174230419       0.22233943990828
H        -3.36519587085073      -1.58772732472852      -1.09848059520972
H         1.81401545837541      -1.32532834728969       0.53870844740944
H         2.13883688269663       0.41711368421611       0.88206648766433
H        -0.06631194332834       3.01057292034203       1.80757220072459
H         0.94280322167439       2.51448797126451       0.42318193380511
H        -0.79163798543411       2.99513059273477       0.17912882760922
H         3.46544573619306       0.59536147609162      -1.21420885696061
H         3.11659335110386      -1.13284132717350      -1.59592980574407
H         4.27123957232960      -1.83047371714487       0.52430742327320
H         4.64894770310645      -0.09262888159653       0.87567205249024
H         5.35546156968259      -0.90073479261033      -0.57490997973553
Cl        7.89817102012118       0.66808661518258       0.57377193801340
