34
C10H18F3NO2 optimized with DFTB in AMS.
N         1.24829014824812      -0.23913787125384      -0.11954183206945
C         0.94867877762929       1.02836265577034      -0.87293673231353
C         0.12068469305745      -1.20803256420900      -0.28192215994239
C        -0.38622178635172       1.64938737794878      -0.49191892306733
C        -1.23097014728547      -0.61937241575402       0.11015770403639
C         2.50609395438188      -0.80931695578133      -0.73093392054980
C        -1.52628652155467       0.65157935728727      -0.68407499583552
C         1.49465097905063       0.07479254225579       1.31535761374472
C         2.95073719257860      -2.14842658529794      -0.17065284079327
H         0.95529536781806       0.77734920442588      -1.93622166997595
H         1.77339526597172       1.71540334345736      -0.66734621155954
H         0.33980110281305      -2.08242411774952       0.33423259413879
H         0.10702500941131      -1.50774161038718      -1.33383079506284
H        -0.53745387971847       2.51682049582430      -1.13929868470020
H        -0.36919639147861       2.00715987050837       0.54096712208130
H        -1.25688108303213      -0.40727640570036       1.18259879321860
H        -1.99169735999386      -1.37685591244780      -0.09715202548090
H         2.32589191162744      -0.89631853580738      -1.80485307199629
H         3.28468087866608      -0.05930547632950      -0.56525833998469
H        -2.46821185913674       1.08801803562097      -0.34361922597366
H        -1.62744949195236       0.40557942490714      -1.74616317573364
H         0.61663024559555       0.55082072601700       1.74328259711616
H         1.70430161839440      -0.84592538776782       1.85482110345543
H         2.34556230024821       0.75360150146336       1.37156649465754
H         3.89968896439220      -2.39168833828264      -0.64952040021698
H         3.11815675399600      -2.10723506976945       0.90419770822517
H         2.24351013084527      -2.94718505734261      -0.39239634837816
C         4.48744060731320       2.42922944672987      -0.53092597806724
O         3.67766476370216       1.81495741995390       0.18228238389313
O         5.21216482426742       3.37645806761905      -0.35363194269852
C         4.53008143711746       1.76326213641914      -2.03381344698359
F         3.25491022216928       1.60280233281224      -2.51023867613342
F         5.04274686533395       0.50731535205901      -1.99660377218661
F         5.20087525837540       2.43563964060055      -2.96740454766371
