36
C8H20F6NP optimized with ADF in AMS.
N         0.35701643526366      -0.01823642679123       0.02217401493942
C        -0.77152503240180      -0.14643855632554       1.02515949291191
C        -0.17015966902630       0.44272674547949      -1.33630564243555
C         1.01821353623720      -1.37932314296265      -0.15304566248091
C         1.36012132839849       1.00975187335521       0.53355109779171
C        -1.93594974604248      -1.01856553855659       0.59660423621374
C        -0.99907143838181       1.70957101005992      -1.31543001659270
C         2.27732523808038      -1.39266625862633      -0.99374043925045
C         2.04247772081328       0.66177646449576       1.84054086652009
H        -0.31880160428193      -0.54069000669079       1.94477352058945
H        -1.11000833709580       0.87895568151786       1.23107144068794
H         0.71054149085832       0.59369796557059      -1.97460567133693
H        -0.75099149131700      -0.40511152384568      -1.72795332626460
H         1.21551039712206      -1.75128778275453       0.86337585868142
H         0.25023993062298      -2.02193056087446      -0.60458546269890
H         2.09405756866759       1.15773090325736      -0.26880091502329
H         0.79776327825195       1.94704763561820       0.63189030874801
H        -2.66475789004954      -1.02711327044820       1.42194191867554
H        -2.45039371365043      -0.63006886740403      -0.29210242174455
H        -1.64257979345151      -2.06063743085652       0.41224146253748
H        -1.29217339982429       1.90698657259844      -2.35844333838237
H        -1.91936242193291       1.62947745388679      -0.71907257045762
H        -0.41355370912687       2.58123295344559      -0.99854469581451
H         2.60359242909374      -2.44187410575427      -1.06887030111926
H         2.12467191496156      -1.01025408735714      -2.01065871038402
H         3.09656881551569      -0.81314179168994      -0.55098159015622
H         2.75543180924161       1.47583129021337       2.04480494019686
H         1.35668000496724       0.60680714051557       2.69784342220273
H         2.62930883306235      -0.26551415595211       1.78600738484542
P         3.15802189929992       2.28319458995248      -2.87125844701318
F         2.26455921506638       0.92015136837577      -3.31353708464202
F         2.54320071848201       3.09266873867197      -4.15473711314540
F         1.84688238319022       2.77478191199833      -1.93992281959385
F         3.99940475179767       3.59664950213469      -2.37519596558629
F         3.71658556092782       1.42254710477309      -1.53619310206333
F         4.42196733566052       1.73493779066954      -3.75204758875579
