53
C17H29F3N2O2 optimized with ADF in AMS.
N         2.35365434202016       1.82015563688020      -0.24995084888020
N         2.64956127433312      -0.06509003325718       0.77144960087555
C         1.50028988375403       3.37498914044187      -1.99316112954461
C         1.91107939835345       3.19974293041578      -0.53382736064504
C         1.18863460122546      -1.31347713390169       2.36608581674393
C         2.58147898829203      -1.14823838365479       1.77499211736187
C         0.29650248971528       2.51555398604090      -2.40548698446692
C         0.09241254434896      -1.52338360060065       1.32319620549427
C        -1.04903391497892       3.18830916315260      -2.13081851227387
C        -1.29192667848186      -1.59136628601128       1.96936115919484
C         2.06165548888525       1.14021851006888       0.87294176831458
C         3.14180648958380       1.04070276782351      -1.07208311827090
C         3.32209868914536      -0.14884656575486      -0.42968008305647
C        -2.23434525895605       2.24449166551275      -2.32454122781165
C        -2.43584159738987      -1.37867799684779       0.97886040274380
C        -3.56895493352121       2.89953545347904      -1.98049612031755
C        -3.77580526081437      -1.20278895688476       1.68891126106261
H         1.26496809078707       4.44517416959847      -2.13056702628923
H         2.36939848894486       3.18126794435758      -2.64550804751257
H         0.94455462483015      -0.42829083720722       2.98041369068402
H         1.23570184181465      -2.17371555774051       3.05750758600609
H         2.74310526632449       3.87314205928340      -0.27140902060875
H         1.07531452013709       3.39971570297389       0.14921612286012
H         3.32188116889556      -0.92369416031202       2.55898394064150
H         2.90133191553595      -2.05859772070396       1.24501857637717
H         0.33363823478983       1.54899687192902      -1.87136800409504
H         0.36841792725344       2.27243991878631      -3.47996451086976
H         0.29467068737927      -2.43140483650440       0.72191705723223
H         0.09667753299257      -0.67325035327011       0.61863409524815
H        -1.06920675743228       3.57566958898176      -1.09884982275041
H        -1.15840628135236       4.06485163620712      -2.79771273264371
H        -1.35889562806792      -0.80724749415882       2.74363991387527
H        -1.41797285473633      -2.55812228529008       2.49280360381643
H         1.40058121837892       1.49971853398377       1.71616589549879
H         3.49940532679530       1.38436377690514      -2.03244564340716
H         3.86658715868230      -1.03728895856223      -0.72279172583255
H        -2.24718608277595       1.87983864436764      -3.36886976321216
H        -2.09027840361329       1.35847858367828      -1.68195768485085
H        -2.48264344496510      -2.21582883884017       0.25707497816863
H        -2.22260197703017      -0.46765461804699       0.39260818608792
H        -3.58339411973539       3.21416064492661      -0.92521780695279
H        -3.74796642837520       3.78990368870115      -2.60525863478575
H        -4.40668162690908       2.20256667877732      -2.13445231876407
H        -4.59176932965922      -1.02322079370354       0.97247610080185
H        -3.72306905539470      -0.34234982688961       2.37515901882089
H        -4.03258688592708      -2.09480169148789       2.28322310276355
C        -0.82352962015139       1.83194552434057       2.97631381764974
O         0.44726722745175       1.83810920566138       3.01711399743403
O        -1.66540729716719       1.37761902980404       3.75671856669718
C        -1.37761096474092       2.48142897195010       1.65746237351537
F        -2.72641293012482       2.50323506875768       1.55023567920201
F        -0.91137805049502       1.77083997161691       0.55648244130796
F        -0.94248194215440       3.77709622742688       1.47265016796169
