62
C18H23F18N2P optimized with DFTB in AMS.
N         1.35122067822734       1.93771015852375       1.58142614735783
N        -0.17079900084203       0.84177213714480       2.63879614367905
C         2.20642290166652       2.45017937080069       0.51651833803787
C         3.39297141738853       1.51175044227647       0.27415000928209
C        -1.27863360198424      -0.05971610785830       2.94030632775479
C         2.96770581271003       0.20868982763556      -0.40531749690895
C        -0.80662577732897      -1.51690946774371       2.99206886016099
C         0.30789689946553       1.12148705468416       1.42557400930216
C         1.55712483993265       2.15748199019936       2.91396292113569
C         0.59523414563045       1.46795463727962       3.58077975864152
C         4.18250380871071      -0.68131596298037      -0.68427962261454
C        -0.54206948152606      -2.09429337305156       1.59887247845169
C         3.76482317197581      -2.01122764093847      -1.30715673238415
C        -0.21755414311495      -3.58483223186025       1.67294441857019
H         2.55831735392411       3.43678346836230       0.82812512555437
H         1.59911451152770       2.55641517013856      -0.38713464557323
H         4.10795439916079       2.04386448003352      -0.36000864193166
H         3.87919105358191       1.29407303779653       1.22835278328320
H        -1.68155036467360       0.24141498503798       3.91014901611329
H        -2.04935534938492       0.07750212404480       2.17581093810289
H         2.44942714951704       0.43605785260044      -1.34434720340107
H         2.26779196648537      -0.32672570227482       0.24352901705379
H        -1.59424932730066      -2.09514303544789       3.48388556032735
H         0.09559712091760      -1.58091325401986       3.60501933693297
H        -0.10065790744360       0.78792399138476       0.48825649959283
H         2.36850166642557       2.76142957188781       3.27844796554531
H         0.40865729069564       1.36035815264512       4.63438792119685
H         4.71188566124191      -0.86920861088583       0.25414563283070
H         4.86973969839286      -0.15883378522267      -1.35809452334081
H        -1.42438329300859      -1.94069610442531       0.96617742638163
H         0.29783524013259      -1.56509224708714       1.13831149900014
H         3.27802404240508      -1.84992341949393      -2.27038183204954
H         3.07235465064690      -2.53838644517711      -0.65078224569830
H         4.64298804796869      -2.63861626680398      -1.45954424805282
H         0.66055989807105      -3.75090735540251       2.29511244354315
H        -0.01412980523272      -3.96872930445005       0.67349286764035
H        -1.05635055436686      -4.13822266514307       2.09697265337791
P         3.64565579431223      -0.67595648257943       4.58341746468002
F         1.96110353704163      -0.47897697008983       4.72592365114326
F         3.67554438829536       0.47949724332222       3.32710458381899
F         3.64394714684896      -1.79869719006204       5.82017384105980
C         3.69593754005989       0.82611127224114       5.85030187838255
C         3.04604347542911      -2.06897011336832       3.28072302435858
C         5.60173467896146      -0.99265397204300       4.31521661220388
C         3.28761516287572       0.57586188281606       7.32623752648387
C         3.86779360852932      -3.11798930657365       2.47973215658761
C         6.75319693992920      -0.53912225795599       5.25812564860188
F         2.83590591640349       1.77969037802770       5.40755314556746
F         4.91019183299516       1.39972706003699       5.85721139020965
F         2.35819482327409      -1.38464090794048       2.32712299656771
F         2.13182436476895      -2.81418974485935       3.93566906208920
F         5.93912424549733      -0.56280462348695       3.08274512351295
F         5.68134679961242      -2.34122719516003       4.29624316701167
F         3.26037200169289       1.73563209847564       7.99089339896052
F         4.13346579474416      -0.23161188220292       7.95001883455230
F         2.06702346975821       0.04741247917018       7.39278648907318
F         3.06134240951726      -3.64811615847642       1.54367885329913
F         4.90736579941305      -2.59360830887097       1.83907038941554
F         4.28466622879359      -4.11463323946925       3.24504673454819
F         7.14689277267081       0.70002261345397       4.98123288591567
F         7.80766993515612      -1.33919240127784       5.10064542791398
F         6.38648448662433      -0.59977438463675       6.53567532184693
