32
C10H19ClN2 optimized with ForceField in AMS.
N         0.39349629354075      -1.57789656576685       0.35572997811849
N        -1.74151395007046      -0.95625532155987       0.35465071884382
C         1.80488684436432      -1.66434585910724       0.72679819551127
C         2.65833440315141      -0.72819513766269      -0.13886938533655
C        -2.98385871183193      -0.28453886128778       0.73270667828985
C        -0.58031725008815      -0.94377979796498       1.03742330135397
C         2.27280038767308       0.74462431299972       0.06409382744510
C        -0.17245654472985      -2.01444108023909      -0.78734399194411
C        -1.49777798642925      -1.63138179783077      -0.78672794692065
C        -3.27950231939339       0.89798872239498      -0.19947046506489
C         3.17575959611152       1.67061786562656      -0.74349005230150
C        -2.17986915472078       1.95854958856379      -0.15085747420029
H         1.93534564164851      -1.39867670416079       1.79874815338241
H         2.15395006566838      -2.71129284457917       0.59657876873489
H         2.54221457949213      -1.00332283760183      -1.20978036225829
H         3.72562300222343      -0.87035257747889       0.13812432395494
H        -2.91761188127607       0.08103685184061       1.78109971112280
H        -3.82221580595785      -1.01207659321192       0.68341718857432
H        -0.43246406781437      -0.43589903777388       1.98213636892163
H         1.22319956659393       0.90861003625330      -0.26036227339530
H         2.35325255111469       1.01053163131965       1.14012434395679
H         0.34586440469555      -2.54307693252950      -1.57617974030274
H        -2.21927612287503      -1.80333566210220      -1.57453999367654
H        -3.39614641445930       0.53635657868411      -1.24349227600515
H        -4.23960085498188       1.36410018592066       0.10923585596760
H         3.09771859928235       1.43709258837704      -1.82653515144872
H         4.23187535885175       1.56122232419710      -0.41794591032394
H         2.86281800177007       2.72429281363418      -0.58473515763157
H        -1.23109030073847       1.55286305614777      -0.56020152730376
H        -2.01386495128465       2.29861884721212       0.89320864986904
H        -2.47902520076695       2.83243003695484      -0.76672135457749
Cl        5.15662819913649       0.80783449773102       2.64713591104457
