29
C7H13F6N2P optimized with ForceField in AMS.
N         1.11111569148617       0.35613478337250      -0.36630678498556
N        -1.11193824578622       0.36678531778918      -0.38202437363821
C         0.00007541341867      -0.23661031677795      -0.84501836842689
C         2.49391451134083      -0.03856807396736      -0.62130662236561
C        -2.49496995271446      -0.01811346901965      -0.65082778315011
C         0.68880721071755       1.37223014917667       0.41371172308586
C        -0.69094941655822       1.37853569049612       0.40431708981744
C         3.09754066278360      -0.68997967349369       0.61749113459869
C        -3.10774199479957      -0.68205660277462       0.57718123136215
H         0.00072079105998      -1.10197412212144      -1.49666064397056
H         2.53161882680228      -0.76518308539229      -1.46074798592297
H         3.08919307110348       0.85458425165031      -0.90915590943608
H        -3.08467429931483       0.88184216949918      -0.92887919106549
H        -2.53220977953274      -0.73156055360996      -1.50281778410081
H         1.33350159111165       2.05460820671736       0.95212055745470
H        -1.33674877836341       2.06643238532795       0.93435079718067
H         3.09549492005835       0.02227855287373       1.46914631000130
H         4.14444493418949      -0.99402718423961       0.40609212588991
H         2.51166043223121      -1.59184030721300       0.89484428478291
H        -2.52506513451664      -1.58770157563028       0.84904202532172
H        -4.15410850991318      -0.98151279433827       0.35698914388707
H        -3.10900454227641       0.02115139139116       1.43643754640663
P         2.88988062749282      -2.61120869294705      -4.71455591446450
F         3.07401943606395      -1.05032758383402      -4.02288300870942
F         2.59716691183161      -3.33413175698031      -3.18385966508881
F         1.19425945681848      -2.36879768695870      -4.84454569152271
F         2.75126385766762      -4.11220092204718      -5.53838140179859
F         3.16637368805805      -1.87731557920025      -6.24279854169274
F         4.56464257373988      -2.90769068094853      -4.47352009794998
