43
C11H24F6NP optimized with ForceField in AMS.
N         1.99789511922998       0.43698029090883       0.06914287461552
C         2.23911958092364      -0.87094979212995       0.73670573037542
C         3.11085516344968       0.59550705515117      -0.91660797080881
C         0.68914271230612       0.45100361290588      -0.65392488843461
C         3.68535991295352      -1.25019367900567       0.49035704803414
C         3.98277771545617      -0.65025319135669      -0.85711491083838
C         2.06034207213256       1.53939526445406       1.06395149911858
C        -0.55258813352596       0.27641680736731       0.25166589863253
C        -1.81850384201290       0.09981380908618      -0.59754501005345
C        -3.06047344996642      -0.08693645918168       0.28139193630049
C        -4.32304256112256      -0.21959476350139      -0.57846675942062
C        -5.56674906520760      -0.40585556745929       0.28542456731136
H         1.60740715663339      -1.67786173846658       0.29829290669104
H         2.02612438510895      -0.84912250684315       1.82978858647952
H         3.75315773036186       1.48033895077758      -0.69671775066151
H         2.75418122066077       0.73979403620154      -1.96252446886848
H         0.68200675152407      -0.35904384909418      -1.42017518029395
H         0.57585157098016       1.41062384970729      -1.20884765926631
H         3.83299209084269      -2.35226459386423       0.49173512806408
H         4.33417899985701      -0.78157633523059       1.26213628482370
H         5.06266326293509      -0.40994417531095      -0.96757492862068
H         3.67727630059502      -1.36088665126407      -1.65747977310243
H         1.32834820447079       1.39281689553275       1.88648868993763
H         3.06532049524894       1.59034422567812       1.53969130903327
H         1.85438782991315       2.52067645780194       0.58059350153248
H        -0.43417261667821      -0.60791198377206       0.91202318014177
H        -0.68479062717636       1.17809372762890       0.88644603965756
H        -1.70159523172980      -0.78975279317686      -1.25519540607763
H        -1.95397295246835       0.99736990008117      -1.24059269692470
H        -3.16785135867766       0.78741674890886       0.96062142345807
H        -2.93807888502838      -1.00293260909992       0.90088512555822
H        -4.45141182292871       0.69442612070764      -1.19861424905042
H        -4.22389925287298      -1.09395126300984      -1.25819885229973
H        -5.70265755692878       0.46586406776607       0.96038808535637
H        -6.46173060976901      -0.49220070432060      -0.36636027623248
H        -5.47976643596395      -1.33157530622202       0.89307051739102
P         7.51576378950058      -3.09754749665339       1.85175310591853
F         6.51174344292659      -3.59230913655888       0.54824177704897
F         6.30990627324634      -2.10048398741663       2.55990111216638
F         6.88479730751153      -4.40065988130756       2.77669056887173
F         8.56824652875101      -2.49813934101297       3.07029307535544
F         8.81343694993933      -4.12682046519555       1.39510243153024
F         8.00910736029868      -1.85822178401059       0.76886675985013
