21
C5H9BF4N2 optimized with ForceField in AMS.
N         1.12050372125541       0.01189504082405       0.00252957454929
N        -1.10073232794270       0.03231308443870       0.00825313530807
C         0.00287389779091      -0.73973854827649       0.00851087898338
C         0.71176014010309       1.29548160403210      -0.00227259043681
C        -0.66863719674619       1.30813178254332       0.00169800961687
C         2.49853164639638      -0.46001440014788       0.00123792634039
C        -2.48713009719654      -0.41382945937758       0.01294739904041
H        -0.00706173529390      -1.82314013217563       0.01342046360516
H         1.36672220904446       2.15722021290706      -0.00878360425164
H        -1.30791956618731       2.18159269512552      -0.00148210304969
H         2.53019927343580      -1.57040282216997       0.00823210500219
H         3.01754977468677      -0.09138905542933      -0.90826686582571
H         3.02328407485409      -0.07999094303512       0.90276366610937
H        -2.99538309209291      -0.04097173661596       0.92671197641233
H        -3.00813259122798      -0.01786172658173      -0.88375589342230
H        -2.53947732359376      -1.52340907060536      -0.00040066232384
B        -5.61641270770357      -1.31081270661920      -2.87352564523768
F        -4.99522968603008      -0.20478914409673      -3.51274776400051
F        -6.06543809762092      -2.23422866399500      -3.85489489348282
F        -6.72405994648225      -0.85541864828186      -2.10979407075330
F        -4.68137724584882      -1.94985669906294      -2.01686756688316
