34
C12H16F3NO2 optimized with DFTB in AMS.
N         2.38807351698999       0.52415746603893      -0.30532364542829
C        -0.01125539885292       0.20233046829013       0.10795676275120
C        -1.34434865783951      -0.21015207625795      -0.52203408346748
C         1.12972134083920       0.11513779483937      -0.91347301076868
C        -2.48883733215943      -0.12505812320558       0.49307287938637
C        -3.81991320353796      -0.53730729289303      -0.13299552608271
C         3.14695792150293      -0.38628484181596       0.39260305819692
C         2.73106737395610       1.85573688974809      -0.25452594293526
C         4.23212458246125      -0.03360741320818       1.09273947330285
C         3.79814133762942       2.29746006143942       0.42108217032398
C         4.71206128858266       1.37816530350872       1.16810667053438
H         0.21744255088599      -0.45031749471099       0.95643498656427
H        -0.07824474062577       1.22843151547359       0.48327643550052
H        -1.26617740852977      -1.23549418734892      -0.90000277821366
H        -1.56177387959754       0.44349820583975      -1.37394236833919
H         1.23624031159156      -0.91102292495314      -1.27809049273973
H         0.92706962369167       0.76800244345935      -1.76788513270675
H        -2.56501733416689       0.90071057055998       0.86937631022249
H        -2.26856730302201      -0.77795483159375       1.34442250831711
H        -4.06658771405696       0.11555091142456      -0.97144611558918
H        -4.61755010075792      -0.46902852907910       0.60691584257917
H        -3.76965817682899      -1.56470894972440      -0.49629450452464
H         2.80774722646702      -1.41513388632439       0.34660262486591
H         2.07614690223674       2.53076419412012      -0.79414939866827
H         4.80838876779382      -0.78357883736201       1.61814895735581
H         4.04354841999800       3.35115865422338       0.42913313392398
H         4.83581783113333       1.70177716913785       2.21408996454393
C         6.74136914122749       1.20013173482663      -0.39231301361511
O         6.11393719411082       1.54600038450980       0.69703680090370
O         7.85962226956816       1.53830650800703      -0.64317268594496
C         6.01246864360645       0.25149124353441      -1.42523293356856
F         6.75631075616371       0.13363994623198      -2.51920438150838
F         4.81462270740192       0.71451743730151      -1.80270905733853
F         5.83632005293753      -0.97778717543717      -0.92230385953320
