34
C8H15F2N3O4S2 optimized with DFTB in AMS.
H         0.34255503466053      -4.05404621178953      -2.29318846447537
H        -1.31980895054931      -3.97066616934749      -1.63636393459249
H         0.02663017885734      -4.42820154521916      -0.57226335403656
C        -0.26446828665971      -3.81041558347722      -1.42354600005623
H         1.56077637729386       0.36111170553398      -0.59401258022033
H         1.91382063137458      -2.08643989048554      -1.84274823450185
H        -1.87578224068773      -2.01295860473642      -0.00280950683199
N        -0.05898045113886      -2.41532614270739      -1.06971358700096
C        -0.90408168632074      -1.69307895947562      -0.34069475235165
N        -0.33378624726491      -0.51586668287688      -0.09838232581980
C         0.91164928406563      -0.49363161393920      -0.66748656269265
C         1.08417587962330      -1.69418141773148      -1.28107955476892
C        -0.87272407105897       0.49079133930714       0.81075225769173
H        -0.79176839446760       1.47245467835609       0.33589108182720
H        -1.92662981928225       0.25080567793557       0.96887452064193
C        -0.10424050435145       0.43932875611236       2.13711484245972
H         0.87353151998408       0.91450607614757       2.01239332142530
H         0.06290289814923      -0.60636153526891       2.40366664456856
C        -0.89450978798178       1.12478745899016       3.25520151069297
H        -0.98765851412734       2.19507739587152       3.04125403022443
H        -1.90172153840675       0.69793727532311       3.29373785307313
C        -0.21128600713121       0.91599626879439       4.60493551490338
H         0.80255118658723       1.31842811505882       4.59012028405828
H        -0.16401214241689      -0.14769823647731       4.83942592573843
H        -0.77618701873739       1.42113544758553       5.38823746155613
N        -2.24466469587477      -4.23033182467262       2.80262962930243
S        -1.30436121320625      -2.96516506767542       2.79016365213262
S        -2.55881067244714      -4.86927836034759       1.37852379328712
F        -2.27785525539567      -1.75641949946451       2.19959668687044
F        -1.14730312133774      -5.57715076525269       0.95762832350627
O        -1.04338154455966      -2.54923409234503       4.12547235814853
O        -0.22015241923101      -2.96033537234174       1.84265896680506
O        -2.78027449470772      -3.94480684327767       0.29765625576813
O        -3.46290258095293      -5.94913214340685       1.55313857676708
