38
C12H19F3N2O2 optimized with ForceField in AMS.
N         1.87856905988806      -0.88734099434713      -0.20184654235918
N         3.07469353697052       0.98239387318536      -0.07558867703372
C        -0.38409806160734      -1.88078888157395      -0.09528742415241
C        -1.07265151678796      -0.53500275390500      -0.36636123153952
C         1.01405955022649      -1.94444538199622      -0.72606638805498
C        -2.48222464354991      -0.49993166546906       0.23318491052743
C        -3.13286748376685       0.87129113943817       0.01318923686467
C         2.36187256675727       0.17193985500368      -0.88167047357483
C         2.30744426475421      -0.74453117682864       1.06924586582591
C        -4.54132768876925       0.91577447269776       0.59675492388233
C         3.04686876070798       0.41794039145978       1.14741427580252
C         3.72231005389190       2.23656617016703      -0.43708443702651
H        -0.30303943480701      -2.04804550422476       1.00100899605130
H        -1.00035545430142      -2.70371956710421      -0.51921880817306
H        -1.13525038848001      -0.36572203113810      -1.46415473735534
H        -0.47096716180999       0.28503198994566       0.08332947108922
H         0.92482463830993      -1.85139874388132      -1.83114603328813
H         1.47159679207605      -2.93357845820159      -0.50819679237845
H        -3.10500402896517      -1.28741423544187      -0.24604334297927
H        -2.42489857771731      -0.70954835859487       1.32461911410257
H        -2.51824071115307       1.66070604184398       0.49954604852398
H        -3.18784360962940       1.09064621454599      -1.07571252978412
H         2.18200008656733       0.35817446416554      -1.93414126852630
H         2.08677797648063      -1.42432405743964       1.88207029451034
H         3.52317118579617       0.82252049864589       2.03126489299727
H        -4.51207116568032       0.72227694676158       1.69041460905243
H        -4.98118465475891       1.92082540783871       0.42491564794928
H        -5.18661051287954       0.15655184657148       0.10544785683080
H         4.81019842895666       2.16864308360914      -0.22713558906148
H         3.57530703911144       2.45398263263794      -1.51669329624588
H         3.28662678321629       3.06676418832569       0.15798651852230
C         6.03886637757621      -1.41425241908220       0.96956096230990
O         6.22655362211610      -0.32830787532211       1.49527624389278
O         5.91158545649673      -2.40852225951848       1.66625985972630
C         5.96636243419311      -1.53425327209503      -0.52328087249987
F         6.97245864207697      -2.37206284314138      -0.96710846215226
F         6.11596403799069      -0.29410063101684      -1.11970883309903
F         4.74224929910272      -2.06429317362100      -0.88565655877698
