61
C17H24F18NP optimized with ADF in AMS.
N         3.03546484658517      -0.97536746795410       0.48165093400019
C         2.56914127160745      -1.91105418263255       1.59055244971932
C         4.20367489271514      -1.72481707120534      -0.20886275251203
C         1.93888532189239      -0.69401163317264      -0.52043642933078
C         3.80801173002270      -2.70802195294281       1.95623185876568
C         4.41843745786240      -3.01075057088101       0.58574488544019
C         3.54789951901464       0.30401470315924       1.07470616682767
C         0.72386528377620       0.02209653593341       0.04379993281105
C        -0.37264718464561       0.15602574978472      -1.01651875108458
C        -1.60134970911248       0.89304894433858      -0.48509409916968
C        -2.71914981072994       1.01981140739945      -1.51848980155074
C        -3.94657462205032       1.74358636571950      -0.97074676971637
H         1.79952426357030      -2.56406014410720       1.15113496493371
H         2.12982713789131      -1.31715841587760       2.40163515920232
H         5.07963426939202      -1.06980798833830      -0.16778290388585
H         3.92572289189070      -1.89040450097805      -1.25689597704284
H         1.65540134370588      -1.67372837804152      -0.93854218711011
H         2.40638995299233      -0.10136267484567      -1.32286585663280
H         3.54961044137537      -3.61254920820880       2.52538544857407
H         4.50206323212204      -2.10880059246665       2.56442730836216
H         5.49080346192067      -3.24359955114377       0.64316790803204
H         3.89465743530016      -3.85784638980141       0.11272257318806
H         2.74073837691443       0.78750871634933       1.63611514521563
H         4.39611320857775       0.07668390607409       1.72770765788823
H         3.90311432894944       0.94648758230677       0.26017257529893
H         0.32006061874000      -0.52888878887302       0.91106707987717
H         1.00078224273902       1.03031008780246       0.39288102578312
H        -0.67098110394354      -0.84832514866835      -1.36989492394873
H         0.02705719056433       0.69432202244571      -1.89570171711369
H        -1.30323928612974       1.90220290204455      -0.14328145733377
H        -1.98741446456921       0.36342798109993       0.40640789585709
H        -2.33392822918901       1.55663358174313      -2.40446003206863
H        -3.00591101304075       0.01030095846410      -1.86594265380124
H        -3.68971916169078       2.76448786635985      -0.64501156396827
H        -4.74035759239205       1.82278716479447      -1.72843322332976
H        -4.36313713370847       1.20980635235651      -0.10134688850288
P         7.94259585257323      -0.06851226027912       0.53628512350231
F         7.29140876085263      -1.48457624630069      -0.11018744538741
F         9.45668790267814      -0.71280750646763       0.63829031787780
F         6.39317502298588       0.61540940647036       0.43981070527378
C         8.30448704874126       0.36347166544539      -1.35637302625512
C         7.50695902443593      -0.93024835372744       2.34988857294115
C         8.51643347599448       1.64140030267916       1.44205880362359
C         7.11272397695207       0.66818554394242      -2.31919046696251
C         8.42404782771802      -0.87174618590662       3.62240405617039
C         8.73349523927855       3.04879641047721       0.78812891576772
F         8.94237395555677      -0.71343758838699      -1.93115392462660
F         9.15981535086379       1.43206300762237      -1.49051565105873
F         7.40115590251122      -2.29424835235237       2.14015369063497
F         6.24887786521241      -0.52748403848479       2.80833654977004
F         9.68323420451247       1.40867120530915       2.13176405272184
F         7.51875690226781       1.88289994796743       2.37468228242875
F         7.58201362143058       0.79539889445314      -3.58971307022368
F         6.46721664989558       1.81710880250059      -2.00572026025059
F         6.18912415454241      -0.33473874128256      -2.33299368897669
F         7.95130128744840      -1.78384830859273       4.53028767808622
F         9.69528017406445      -1.21059204004107       3.32757507400414
F         8.41290067532860       0.32539213193603       4.24152639557028
F         9.93843986038511       3.15785117062999       0.19109544187931
F         8.69480569626232       3.99818450107298       1.76835563349169
F         7.75594158128797       3.34838076297886      -0.10089983737652
