49
C13H28F6NP optimized with ADF in AMS.
N        -1.74958620009684       0.06895644499323      -0.05169002189775
C        -2.69762353451209       0.56592432577510      -1.12562255823689
C        -2.07955420854718      -1.39199869477582       0.25194778286168
C        -0.34195362754750       0.15262045417206      -0.61971873701953
C        -1.86949505415732       0.88633523351530       1.22778766661902
C        -4.16310391486662       0.38818712046484      -0.76246835850561
C        -3.53947695383369      -1.61513927826090       0.60347096240233
C        -4.47829003732177      -1.07902771269544      -0.47216451831749
C         0.77007879641130      -0.26825586437778       0.32423635123554
C        -1.51459656180080       2.35149805241958       1.07985073311307
C         2.13146822073932      -0.16914513365501      -0.36855437092418
C         3.27335735169822      -0.59723532939574       0.55398158833169
C         4.64586453073246      -0.50778715422308      -0.10964893369214
C         5.78029311352998      -0.93665892892390       0.81775468335760
H        -2.45765237875535      -0.02488974874696      -2.02530056476714
H        -2.44160276267885       1.61532426910631      -1.32850375446853
H        -1.43663803193064      -1.70712769927871       1.08313116791581
H        -1.80856133181272      -1.93969979749682      -0.66639856037546
H        -0.20430316340392       1.19212870671111      -0.95562086006343
H        -0.35131834259053      -0.48420508454371      -1.51916198163295
H        -2.90104108964345       0.76610125391074       1.57450414762832
H        -1.24244056775866       0.37718759280500       1.97164524878358
H        -4.75807748486717       0.76252056937011      -1.61268983976193
H        -4.42814747467562       1.01800449836020       0.10323934104299
H        -3.75700642875999      -1.18424198694466       1.59348607101976
H        -3.65854051654585      -2.70226648434507       0.73747926891286
H        -5.52729996711033      -1.18927971613603      -0.15543819176771
H        -4.35874204479950      -1.66395720578527      -1.40423931652062
H         0.77818377019277       0.36187984555897       1.22679822068130
H         0.61348711670969      -1.29825773062245       0.67760895455715
H        -0.46781796324290       2.51526004316753       0.78590266477888
H        -2.17103551491672       2.89167592772075       0.38168251419612
H        -1.64816021533827       2.81045575535028       2.07124724854642
H         2.30601546823804       0.86901860801666      -0.70948226833157
H         2.13937503351261      -0.80130581043977      -1.27646880761034
H         3.09573049238713      -1.63281687120804       0.89767090351299
H         3.26245015266230       0.02965959688367       1.46461745751649
H         4.65374014996884      -1.13822933821160      -1.01792166615306
H         4.82034143647177       0.52925834397175      -0.45121483291867
H         5.64651625134661      -1.97842322331604       1.15009258978678
H         6.75492241438215      -0.86378516349936       0.31133154368179
H         5.81681517267342      -0.30337332615804       1.71846059790654
P        -1.42046797170384      -1.94013398714423       4.15493239996833
F        -2.49415901325360      -2.57847715629980       5.20813525537528
F        -2.57809989341263      -0.84338734717301       3.62346770880426
F        -0.90442375069175      -0.84117585734077       5.25884668808585
F        -0.34783988879792      -1.26744046426991       3.02124173745942
F        -0.25795342547472      -3.00058053868508       4.60547306236875
F        -1.93155034000790      -2.99148315902019       2.96119174401441
