36
C8H14F6N2O4S2 optimized with ADF in AMS.
N         1.13081904224298      -0.42444841286441      -0.28579048619829
C         0.12398291585479       0.57701520499512       0.23157893736500
C         0.36436021885920      -1.73205061016915      -0.18274879902127
C        -1.21401086237697       0.12888416394660      -0.36502577870213
C        -1.03866991592148      -1.38683959133154      -0.66701598349373
C         2.38446442271727      -0.47055704709030       0.52495332089611
C         1.48007349959166      -0.12893921818358      -1.71697274722786
H         0.44520736336664       1.59090720699840      -0.04415082279902
H         0.13066733647984       0.48018179278385       1.32779158693155
H         0.38117573929194      -2.00216018234489       0.88426693068916
H         0.90160682151250      -2.48646622290395      -0.77139468014978
H        -1.44758349863033       0.69048068101301      -1.28130170172305
H        -2.02633641878088       0.32378375961883       0.34960297688933
H        -1.78283976911738      -2.00568427362190      -0.14704227425080
H        -1.12748693894047      -1.60096749764206      -1.74168487505107
H         2.89057335524476       0.50042130113909       0.44709716480991
H         2.11703818864842      -0.67542114562572       1.56942383352334
H         3.02415496947150      -1.27482984347219       0.12932140901787
H         0.56574746779500      -0.11201933728372      -2.31811723979400
H         1.98593388984963       0.84450884039822      -1.74684255198557
H         2.12652468012982      -0.94031490245532      -2.07851996050201
N         2.35565314987766      -3.12252839740665      -2.26856585146847
S         3.68052505996895      -3.84602186002545      -1.69644996850255
S         1.35013759397584      -3.71252607272329      -3.38737336860107
C         5.03750131263709      -3.67066190810680      -3.00235066706319
C         0.38931387840249      -5.14335039375958      -2.59154457597416
O         4.14818880428497      -2.96583455717199      -0.62033262344288
O         3.56487081101997      -5.27969101435743      -1.47653865546992
O         1.98003565670587      -4.30310537265928      -4.55677253929239
O         0.31739749883588      -2.68251826997533      -3.52984105946480
F         6.22790256983556      -3.90242817441111      -2.39775912832781
F         5.05182266804163      -2.41332945025853      -3.51460707133176
F         4.88477451422177      -4.55070347382890      -4.00603300029540
F        -0.75759349153602      -5.32122627831279      -3.29186587634626
F         0.05304026455788      -4.83940931862907      -1.30378977614117
F         1.07960457068205      -6.29282532207822      -2.59912901660182
