46
C14H29NO2 optimized with ForceField in AMS.
N         0.96723521542205      -0.30937653996839       0.00110419307392
C         2.03670160697580       0.07015589419541      -0.97329728682859
C         1.63690479352741      -1.22884647059971       0.97219900117927
C         0.47409704299893       0.90755503459290       0.72560344398305
C        -0.13077515365153      -1.03107710678254      -0.72156385273141
C         3.24328224509319      -0.81329731489286      -0.72419535432638
C         3.13282613398522      -1.16660856464946       0.73173707456914
C        -0.27110240524513       1.92806706254609      -0.16855784993061
C        -1.31934780709146      -1.45607450702345       0.17412428285967
C        -0.57651547373617       3.21371727527252       0.60844620585374
C        -2.31015611786724      -2.32143806490079      -0.61334811380481
C        -1.31122188487531       4.22653988771235      -0.26539411132107
C        -3.49043433951389      -2.74449587175084       0.25657893678231
H         2.37665998919986       1.12287493043720      -0.83925951067186
H         1.71754849092519      -0.01889408055776      -2.03689153797070
H         1.33243930840877      -2.29079520250546       0.82653227287356
H         1.41445606816589      -0.98561325497888       2.03624855659673
H        -0.20048361385781       0.61918647158862       1.56169580753179
H         1.33476284430298       1.42455410452284       1.21078444900749
H        -0.52687979141589      -0.40768724804875      -1.55333194898820
H         0.28427940754017      -1.94226295355752      -1.21232340343617
H         3.17351481883019      -1.73408083878077      -1.34469767419016
H         4.19392331610291      -0.28291216512180      -0.94451399522399
H         3.58275460029527      -0.36053593296606       1.35278757491140
H         3.63042796439702      -2.13546600245295       0.95585993554303
H         0.33715520576594       2.18295449821894      -1.06127033521839
H        -1.23356853907106       1.49817079991446      -0.51604400475013
H        -0.95966944394099      -2.02931984072577       1.05393600113530
H        -1.86069792275326      -0.55944785952066       0.54115548596920
H         0.37097012713533       3.67126976309659       0.96711988999852
H        -1.20828503445432       2.97494359996426       1.49156011196465
H        -2.69398089386576      -1.74906098818943      -1.48581554761370
H        -1.79753781426983      -3.23336266436950      -0.98931688066162
H        -2.26896392607602       3.79907402831955      -0.63135779160934
H        -0.68184193245868       4.51358319468527      -1.13452742571854
H        -1.53314112819810       5.13798246932060       0.32836639194989
H        -4.02917923488926      -1.85147549624207       0.63891624189924
H        -3.13733190455242      -3.35551326022980       1.11430690763488
H        -4.19632765408520      -3.35362506090434      -0.34619632622760
C         9.03060761491075       0.10548786759696      -0.15178569147178
C         7.71591856051084       0.67481564658392      -0.58129330693631
O         7.49425939445429       1.86718524925615      -0.44538076482506
O         6.86325059584663      -0.04876511170389      -1.06992549546593
H         9.84943012428048       0.57966419766052      -0.73249908702368
H         9.18805302105253       0.30262865252348       0.92939060871004
H         9.05768198094167      -0.99201030688518      -0.32357207778080
