38
C10H19F6N2P optimized with DFTB in AMS.
N         1.11641708563300      -1.00037260761891       1.00084321323282
N        -0.39819993203104      -1.24029617051275      -0.51175502571301
C         1.91433760110961      -0.40524611406948       2.06658129256603
C         2.76720350364279       0.73376895208067       1.49654877158274
C        -1.55661664696389      -0.99105512549168      -1.36403472402208
C        -0.03733646320346      -0.51279177570507       0.54464344698279
C         3.59076285839775       1.40148510249041       2.59896115529543
C         1.51969090787422      -2.02759974341077       0.19529178128099
C         0.56360840913823      -2.17995327008743      -0.75794426903913
C        -1.24020556213823       0.06189285347248      -2.43522427928739
C         4.44829463002411       2.52644999883244       2.02128821379886
C        -1.24387563517783       1.48342403778452      -1.88303316891928
H         1.23179911010965      -0.03699004685679       2.83857510698640
H         2.54284200792187      -1.19163305509463       2.49250088992233
H         2.10663922942633       1.46498000030565       1.02361039645226
H         3.42729970277463       0.33288590792729       0.72434411134016
H        -2.38557620957292      -0.66886009348725      -0.72646858089959
H        -1.81962502880086      -1.94149360955079      -1.83480478420440
H        -0.59170371908811       0.30329549206336       0.97325712754863
H         2.92059524084015       1.80575106492440       3.36624114440098
H         4.23649399073692       0.65671118168822       3.07692653773315
H         2.45230487567086      -2.54111250986797       0.34548319218561
H         0.50556333178009      -2.85277861410039      -1.59457544809736
H        -0.26521483019619      -0.15732277433343      -2.87510947261367
H        -1.99945333938837      -0.03134300340806      -3.21696892916943
H         3.82004238993886       3.27051673132721       1.53121076446353
H         5.15080346994376       2.12881770815654       1.28915804355985
H         5.01059569125947       3.01363314620283       2.81793248431267
H        -0.46140263725835       1.60786531355694      -1.13594575833564
H        -2.20828137460759       1.72404217125632      -1.43134161251830
H        -1.05186062288780       2.18386885766315      -2.69475831563111
P         2.77473553923839       0.20210582433102      -2.35444584539610
F         3.42394640533020      -0.83499529894289      -1.21536271309530
F         1.62463546400131       0.65885092839933      -1.20648623652966
F         3.75286145172285       1.39736743949621      -1.81968897126712
F         2.06215365147887       1.20263218199765      -3.43282208153265
F         3.87486275288961      -0.28336709877862      -3.44637383449614
F         1.74523424193113      -1.02982618663972      -2.82592122817784
