64
C18H26F18NP optimized with DFTB in AMS.
N        -1.82538807779435      -0.01893231291357       0.08890852238269
C        -2.08727837773298       1.39196949352594      -0.35076947309785
C        -2.79188181885450      -0.38545466838329       1.18114040870180
C        -0.44499670645048      -0.11396478085359       0.69445704669334
C        -3.53480892080258       1.64372773872826      -0.74798728065145
C        -4.24971739803192      -0.17228768467284       0.79587830760808
C        -4.48409927279008       1.28069821412187       0.39004823099116
C        -1.93125132882591      -0.96494898977882      -1.04982286747395
C         0.70764302370424       0.22112222983356      -0.25035240322620
C         1.94579070187457       0.59407296699314       0.57698636961522
C         3.08376270239874       1.07970291185024      -0.32459732530544
C         4.26931455072142       1.56967254892761       0.51267504456380
C         5.40342313747636       2.07860726609551      -0.37451102429460
H        -1.42738640977313       1.61242379894951      -1.18985759581187
H        -1.81695889306027       2.02768477202416       0.49117684287337
H        -2.54894336728665       0.24901791334402       2.03539899935575
H        -2.60347993192898      -1.42866782121469       1.44511452747829
H        -0.43749320346872       0.57338073522468       1.54064278365837
H        -0.33968419578309      -1.13303066696995       1.07646275450686
H        -3.61964660899628       2.70917504304966      -0.97610186357254
H        -3.79350204074145       1.08450557030755      -1.65248862881655
H        -4.54455724330275      -0.84807500809187      -0.01246158074467
H        -4.85389547446901      -0.41840393348992       1.67285439773643
H        -4.29875122117529       1.93588084110190       1.24574241257046
H        -5.51955150957362       1.41543053839498       0.07002706417974
H        -1.23161018293001      -0.66269383498252      -1.82587573475583
H        -1.68749817315568      -1.96656165043087      -0.69950809377413
H        -2.94235828794834      -0.95111806551478      -1.44820176064992
H         0.93190566972695      -0.63151937887541      -0.89886730066298
H         0.45440311614426       1.07107661636599      -0.88599861309297
H         1.67848196164013       1.39310941458498       1.27411227467199
H         2.27290290619928      -0.27071276769005       1.16316390943356
H         2.72042348817846       1.90094196492788      -0.95175364926838
H         3.40416722981454       0.26797061082491      -0.98736278276142
H         4.63524634799924       0.75105802410996       1.14168378040593
H         3.93354773333811       2.37607486091559       1.17243306764329
H         5.76541538416866       1.28415294062885      -1.02924181037450
H         5.06047184750031       2.90902734060954      -0.99312550194937
H         6.23254586893836       2.42504719655387       0.24262456794314
P        -0.78543373820130       4.01095555663327       2.70207512511137
F        -0.12154421150223       2.48103093050712       2.26298385491844
F        -1.87442538783210       3.83061034751830       1.40011729805301
F         0.28251280989239       4.19277536428870       3.97845479341445
C        -1.93971262035820       2.90736666747440       3.86261793245542
C         0.60504694953967       4.72414912127907       1.51142263652728
C        -1.70436834072940       5.72335014931757       3.06077048106999
C        -1.30341001412710       1.67288824981203       4.57274814837735
C         0.37394073635474       4.63850327083927      -0.01969594035414
C        -1.27861090879319       6.62488660968329       4.24982555175692
F        -2.96477829102711       2.37954912843810       3.14292766681505
F        -2.48088105385868       3.65009150031158       4.83782335360301
F         1.74067943609743       4.03384009170829       1.73755484798124
F         0.87088525741000       6.00677277919428       1.80096802215962
F        -3.01828532993002       5.46717006302912       3.20749567783167
F        -1.58525039698041       6.46908802246238       1.94337161781510
F        -2.09155964533786       1.26681849671029       5.56829425289447
F        -0.09847718490454       1.89279687719561       5.06681416845228
F        -1.21078960098291       0.63803205790415       3.71207999144562
F         1.46032272739307       5.02970081885521      -0.68463167310595
F         0.12939893332803       3.36520281738062      -0.38675450370256
F        -0.64686205238065       5.37747103409963      -0.42906158896286
F        -2.06283017599860       7.70172157247517       4.31897769159311
F        -0.02393202388153       7.03864862251299       4.10804626671204
F        -1.37492944863707       5.97346521353760       5.40546826960937
