37
C11H20F3NO2 optimized with DFTB in AMS.
C         2.69354979211934       0.63619866544093       1.22945832576863
C         1.55378690584621       1.56565382901123       0.85476496256430
H         1.03624719218777      -0.38114164921780      -1.31770185343383
H         0.61788770784279      -1.43400961053117       0.06054974945748
H         3.19894678577623      -0.22103433517991      -0.68550009037559
H         2.91536079938383      -1.43842341458362       0.58036365358191
H         2.57479561907394       0.24395241399271       2.24346003840699
H         3.64783605350995       1.16007938471089       1.16847180786423
H         1.20726061432947       2.20936567861479       1.66314679172580
H         1.83049276806533       2.16302226595638      -0.01523634255465
H        -1.03792097606168      -0.55507588142492       1.34275974567392
C        -0.30591234603066       0.19635065166832       1.62943055149603
H         0.39769278458421      -0.23777495864154       2.33661571610840
H        -0.80751781938175       1.04965373304090       2.08329404560789
C        -0.46265091710697       1.42896830978063      -0.49962071256207
H        -0.66464584341156       2.37817983597584       0.00339277593897
H         0.13193927035001       1.63199767367858      -1.39398967530359
H        -2.38646514610859       0.55503527232572       0.01255131013530
H        -2.96713643678120      -1.74874632911536      -2.93085508270744
C        -1.68482201850674      -0.46282243802109      -1.76624555042272
H        -1.00276752095092      -0.26004825718331      -2.59730452304440
H        -1.28305259405257      -1.30259246475743      -1.19131129405591
C        -3.05552778710490      -0.85165957690838      -2.31846110665774
H        -3.46098328656217      -0.04857278777541      -2.93454893367088
N         0.43546842903160       0.65356705325197       0.42787250789697
C         1.11960240413266      -0.51328914940734      -0.23973776850543
C         2.59010400139120      -0.47507498303572       0.18503690726580
H        -3.75349871296641      -1.05266238956410      -1.50445504098019
C        -1.79119428053966       0.78118520457692      -0.87740559495236
H        -2.33201677176163       1.55488219706658      -1.43315003432704
C         2.56212009271119       2.31088524883197      -2.77294015878077
O         3.16400424263940       2.36236097147338      -3.81758403599775
O         2.10921915642027       1.38195684675770      -2.08331334722492
C         2.24961164351947       3.74847404172559      -2.04963495301160
F         0.94372521102130       3.80433617729001      -1.65018571205806
F         2.47736027969118       4.84465461919141      -2.77095966692574
F         2.96676470900001       3.86995332488465      -0.90104279433996
