39
C9H20F2N2O4S2 optimized with ForceField in AMS.
N        -0.40356316658767       0.16401804190281      -0.07093734685521
C        -0.97768453118088      -0.88784946799135      -0.96570227021228
C        -1.45986985307713       0.41377002735194       0.95735595983887
C        -2.44166127903303      -1.06548505241534      -0.61194490600402
C        -2.50262608761571      -0.67992597944013       0.83893457484247
C         0.83435903198706      -0.34651030352777       0.60493701890882
C        -0.15083351273997       1.40888103617479      -0.86762495715523
C         2.01362704963806      -0.64304050088039      -0.35079077863432
C         0.44165971403444       2.57838680641447      -0.06205661039296
C         3.17075827859430      -1.30032181776825       0.39583209541742
H        -0.49085603561828      -1.87901089328871      -0.81765429897882
H        -0.87936636106872      -0.64723584583300      -2.04935489000693
H        -1.98993097736161       1.37972892388952       0.78996374177013
H        -1.06400632358024       0.44814743470614       1.99841692028231
H        -2.78359464198643      -2.11088347973383      -0.77393924339345
H        -3.06446986208072      -0.36826293633994      -1.21562550920890
H        -3.51477544910207      -0.32131587735538       1.12710473371005
H        -2.21491335456380      -1.54744733049191       1.47373905403438
H         0.59360303061343      -1.27956154292497       1.16601345145490
H         1.18536399186745       0.37684606683930       1.37377916112683
H         0.52874268827561       1.20149758079451      -1.72262534164148
H        -1.10218238010650       1.76266874569790      -1.32795295391308
H         1.70301468053037      -1.31588650735714      -1.17636755498230
H         2.39117220549628       0.29848955425555      -0.79336752399297
H        -0.17264606031908       2.81695152097395       0.82971860443808
H         1.48174214871043       2.36143864438992       0.25381883978586
H         0.47160870230660       3.48172375617178      -0.70719218708012
H         3.53383903488347      -0.63325612762002       1.20643524816247
H         2.84731222940715      -2.26840868356156       0.83392716050569
H         4.00835960915287      -1.49157999016705      -0.30789812714143
N         6.24388780586737       1.72088825738342      -3.19874491274421
S         6.73255257704212       3.25004841039032      -2.87925283589176
S         4.65743296889063       1.31898098566084      -3.18523857514830
F         6.56614804787121       3.55571078497286      -1.24097232301208
F         3.93475807259828       1.86750247087868      -4.59276283884358
O         8.17324180561934       3.41337017526579      -3.27259574552737
O         5.88423933772074       4.22687215698108      -3.64394313302099
O         3.97922978351116       1.96242901779538      -2.00907073096594
O         4.51389753430350      -0.17439119809422      -3.10260651923056
