42
C10H22F2N2O4S2 optimized with ForceField in AMS.
N        -0.48529589383259       0.01954986654428      -0.01225959585528
C        -1.41229479185057      -0.55514363762031      -1.03628711952675
C        -1.37938622744970       0.63758194945653       1.01441708719014
C        -2.81779328996173      -0.07273852687641      -0.73085359750743
C        -2.79573841082739       0.16858367316929       0.75112563890646
C         0.37344087739650       1.07185891264670      -0.64717039031325
C         0.32334217589131      -1.07225805095881       0.62269722844612
C         1.39697554031632       1.72398324147670       0.31385249681388
C         1.32085456981523      -1.76821286887516      -0.33518503265924
C         2.09407031620795       2.90891699991954      -0.34793403054848
C         1.96739074255184      -2.97919386577303       0.33113742770701
H        -1.13929513850891      -0.28220752662832      -2.08101968564956
H        -1.44167824687949      -1.66870637450609      -1.00188499159434
H        -1.08760227831188       0.39068055899066       2.06052122255087
H        -1.39257375050664       1.75021007085380       0.94668296689487
H        -3.01415718573478       0.88232076036213      -1.26695523346563
H        -3.58769329515330      -0.82543397949115      -1.00890148314817
H        -2.98080732697697      -0.78573389746237       1.29193741909240
H        -3.55008663685743       0.92803066449957       1.05246706365468
H         0.92673985182720       0.65322072229364      -1.51689988320296
H        -0.27495688901117       1.87392946655885      -1.07136496464385
H         0.89332722197543      -0.68069164721198       1.49438523730007
H        -0.36192449312128      -1.84501276232779       1.04330532465622
H         0.90051786897012       2.08133760891619       1.23978180337380
H         2.17904347279986       0.99148989590106       0.60180343134544
H         2.13360155178502      -1.06985034275309      -0.62277288295197
H         0.81270687239061      -2.10671265492216      -1.26171847804912
H         2.64347067990131       2.57484930705271      -1.25393519204103
H         1.35267878330183       3.68593136805938      -0.63183854210314
H         2.82048387904865       3.35602197551034       0.36340236037775
H         2.52651169757900      -2.66591684101633       1.23868113493622
H         1.19442571608670      -3.72531077899618       0.61365199870094
H         2.67817834412202      -3.45639989531738      -0.37643075201686
N        -5.95458458645926      -3.08733665500215       3.39209178577049
S        -6.43932629963862      -1.55124122222725       3.10254452835123
S        -6.89029114435187      -4.12857184064269       4.23940645154360
F        -6.18588623016588      -0.62491702374096       4.47340749804080
F        -8.20532034236269      -4.57623760131188       3.30539950057260
O        -5.64358225447345      -0.97865612049974       1.96503599255478
O        -7.90262434161947      -1.52636710152740       2.76010291119715
O        -7.38739796996286      -3.46627463022035       5.49374498011329
O        -6.09171599854898      -5.35098512010240       4.59292466718625
