51
C15H29BF4N2 optimized with ForceField in AMS.
N         3.02064493695472       0.91077474842830      -0.02815442323255
N         2.85963543666906      -1.30128867742818       0.14993416809740
C         1.43011470781217       2.78064576303221      -0.28883833891543
C         2.79451182280652       2.32749056783575       0.25158214458856
C         0.96035320756241      -2.64646872638771       0.98975811656908
C         2.46004889666368      -2.61477323425988       0.65534319070470
C         0.26864047280984       2.12164204942741       0.47018911081318
C         0.08828367375631      -2.32278889540324      -0.23342904503270
C        -1.08775321753518       2.57691080657088      -0.07700022344390
C        -1.39888709286890      -2.30321824540757       0.13842730292542
C         2.74512680060300      -0.12187072090729       0.79220582424960
C         3.32643374335277       0.36709834943759      -1.22336274161027
C         3.23430518699877      -1.00471890218413      -1.11116448954581
C        -2.23457930698582       1.90675939202659       0.68986168622951
C        -2.25407424133526      -1.81630843863192      -1.03784838585005
C        -3.58503363682399       2.22802474505669       0.05723234401109
C        -3.72930547807311      -1.74912075418603      -0.65336467904742
H         1.35606638043150       3.88455708170536      -0.18216702472903
H         1.36071793324669       2.53505975427974      -1.37131673716743
H         0.75147453281874      -1.91674095423719       1.80235457089514
H         0.70021896131460      -3.65866945768533       1.36854583821645
H         3.59914610583443       2.92739076986364      -0.22609567340293
H         2.84673722716285       2.51278979343897       1.34731169054677
H         3.04573778536340      -2.84644215707633       1.57083331920748
H         2.68573674609206      -3.40027687073871      -0.09905694973518
H         0.33995758386710       2.37942339082370       1.55016124388151
H         0.33357215461776       1.01830950277539       0.36430992604558
H         0.26369617545820      -3.08403518656237      -1.02534467112901
H         0.36847681345730      -1.32592899507225      -0.63654020064337
H        -1.17784317862225       3.68172399879962       0.01860377218189
H        -1.15414117888127       2.30536297482045      -1.15389881668088
H        -1.55308937974984      -1.62357419253859       1.00535056989125
H        -1.71872437798469      -3.32757399079811       0.43165106664583
H         2.38424475500404      -0.01242257788423       1.80784853414859
H         3.53729125116987       0.92780165521277      -2.12513376527477
H         3.35807236627264      -1.72526334201472      -1.90926584141496
H        -2.09569497602029       0.80466118670352       0.69015253889646
H        -2.23325450128361       2.25857624078044       1.74491175892064
H        -2.13434806762946      -2.50820218845510      -1.90033765197952
H        -1.92047423822402      -0.80227173868946      -1.35182692008396
H        -3.75979686630269       3.32501199086401       0.05792582123114
H        -3.61998156335252       1.84946618485873      -0.98683646135092
H        -4.39395959265242       1.73631720216816       0.63785519814239
H        -4.32170330355935      -1.36832393886193      -1.51203340171731
H        -3.87420503609513      -1.06221828622042       0.20784861329173
H        -4.10208106207043      -2.75998452534532      -0.38205152440147
B         6.03726985918288      -0.44953590079403       2.27474555567170
F         7.31963241156669      -0.50458420615647       2.88228466552329
F         5.82143455741211       0.84921119349397       1.74252341899799
F         5.04096329365618      -0.73536672358356       3.24551496726476
F         5.96771616663195      -1.40752206809379       1.22886448529972
