40
C12H25NO2 optimized with ADF in AMS.
N        -0.42014503049175      -0.23701939498895      -0.43403458146473
C        -0.05885597402123      -0.76878238493797      -1.83249761885593
C        -1.30121860761804      -1.32624810287714       0.16013200839520
C         0.81411365253043      -0.07224279069366       0.43500366482093
C        -1.05543869061424      -1.89944724057508      -2.13177798964274
C        -2.11219467441318      -1.83674337481384      -1.01648033238328
C        -1.17521525281991       1.04306949440101      -0.54464498319234
C         1.81996056857541       0.93349398477398      -0.09566215958006
C         3.16534149152008       0.74027087825945       0.60949491497883
C         4.22008777715729       1.74225147336286       0.14389751237145
C         5.57585665891137       1.51922647954282       0.81143129629971
H         0.98328252717921      -1.15445454690098      -1.76042289320615
H        -0.12697460567856       0.07823222498364      -2.52867407660034
H        -1.87110803398722      -0.90160925440759       0.99883943076067
H        -0.59025075918946      -2.10848291196121       0.48065148491003
H         1.24908588310056      -1.08631806758072       0.45759252726873
H         0.44585327257562       0.20506417085576       1.43725392356741
H        -0.51279379281978      -2.85380043846460      -2.05558426523361
H        -1.49466645684325      -1.80909584533517      -3.13575807018718
H        -2.94658658685610      -1.16133232766721      -1.27096750246881
H        -2.53957681507035      -2.82474070744152      -0.79097781943271
H        -0.54429172142474       1.78523880113727      -1.04799296467933
H        -2.08455817280387       0.87209151801772      -1.13472147913871
H        -1.43489250364881       1.39300687294333       0.46436232520648
H         1.97865467101953       0.75827618666566      -1.17291657432287
H         1.47050943316112       1.97287006915673       0.04240592887643
H         3.50625043793655      -0.28755246445506       0.39160962254151
H         3.03284474919643       0.82764463140293       1.70503118074542
H         3.87073312806528       2.77210878601530       0.34627282585885
H         4.33199421429435       1.65679887910933      -0.95246052154613
H         5.49897251591478       1.61498370684164       1.90699365963835
H         6.32345045193717       2.24860267322243       0.46165113954260
H         5.95782038442083       0.51000425878125       0.58954445181860
C         3.12205342203687      -4.28311350060039      -0.70579580397507
C         2.19873968547031      -3.05970381935151      -0.69161289684772
O         1.09603926623098      -3.18049901735599      -0.06614668140938
O         2.61605566098502      -2.01571750150433      -1.28465969564280
H         3.74397654750633      -4.26853263691762       0.20390120734111
H         2.53754108177382      -5.21386301523864      -0.69171194825836
H         3.79200607690114      -4.26005852680398      -1.57652661217405
