51
C13H24F6N2O4S2 optimized with DFTB in AMS.
N        -0.97779501768764       0.34553910343954       0.22938637560345
C        -2.11693576085733       1.26905773063275       0.57367269221852
C        -1.17078421379446      -0.16855676465486      -1.16747338007646
C        -0.92067056249781      -0.76849194198246       1.24024387519345
C         0.30354712648956       1.14153326243928       0.21073577725305
C        -3.49368612255809       0.65883750387838       0.34469487885124
C        -2.51802091909651      -0.84913557405608      -1.37735444649891
C        -3.65160166940566       0.12876517072884      -1.07650652768190
C         0.21384785427729      -1.76914134139395       1.03855634693742
C         0.71951696333940       1.76013151358472       1.54349038545065
C         0.16504473050469      -2.80809723560217       2.15922229778389
C         2.03976619721005       2.50644742523336       1.35927107320885
H        -2.00425855337887       1.53754052195962       1.62346912520285
H        -1.99488346905076       2.16381038580223      -0.04340641103888
H        -1.09230902357502       0.69528141356245      -1.83425644965626
H        -0.34953700848007      -0.85212844755190      -1.39010829520037
H        -0.84215022531086      -0.29864776165656       2.22222145510516
H        -1.87791636192629      -1.28752877517675       1.20168884472710
H         1.08822814571689       0.47377810789730      -0.15422287168943
H         0.16335623135347       1.93309826696132      -0.53118134690611
H        -3.68327474446082      -0.13943290021662       1.06365421159024
H        -4.22425685691255       1.44885846137715       0.53499883694383
H        -2.56214374104856      -1.17216496401748      -2.42080766253253
H        -2.60530961008458      -1.73785576019268      -0.74774950644328
H        -4.61386978355201      -0.37781835013853      -1.17708204204658
H        -3.62266255591324       0.95572440182406      -1.79394605202626
H         0.11411705866657      -2.27724704476267       0.07476940239780
H         1.18500432778682      -1.26798502379388       1.06082312618638
H        -0.04211009291613       2.45863013824867       1.89333641662393
H         0.84564098566416       0.99008640299282       2.30600997635902
H         0.94214981232566      -3.55512652628525       2.00089811030776
H        -0.80367603767528      -3.30708103152119       2.17733205716193
H         0.32854087330189      -2.33246482497705       3.12513465969577
H         2.34166543416064       2.94376969744392       2.30993076617808
H         1.93210106787908       3.30696718532094       0.62619765140710
H         2.82459799686225       1.82735286295773       1.02322499732663
N        -3.11255170749295       0.69514019709020       5.34246953689850
S        -2.17533199604823       1.79737049738052       4.67579381143171
S        -3.33269826382591      -0.68709967869525       4.56392826193315
C        -3.32462842827811       2.87815543556744       3.65902372844582
C        -1.96256768836744      -1.80977571592688       5.16809550859658
O        -1.68943634895682       2.67254998700251       5.70381685777692
O        -1.22032891485528       1.32618602000603       3.67990301408082
O        -3.13053883227629      -0.65705257271741       3.12254740092196
O        -4.53577760305173      -1.29259854687498       5.05860441539046
F        -2.59873071158341       3.57045511708277       2.77729028219580
F        -3.99618951644986       3.72482344789562       4.41371907333369
F        -4.18801033050623       2.13774935606663       2.97077598458540
F        -2.02010169702600      -2.96156640546027       4.50662102924415
F        -2.07914219737133      -2.05138455768746       6.46023109069059
F        -0.77300205036630      -1.26464161073450       4.93960244995731
