40
C10H22F6NP optimized with ForceField in AMS.
N        -1.45149922455914       0.40704858760490      -0.08466653367704
C        -1.76020164719200      -0.86584913322564      -0.80076459201272
C        -2.54229353955706       0.58025788548540       0.91534796309605
C        -0.14009118298557       0.33270166664618       0.63006615082019
C        -3.02930562598616      -1.45831553514293      -0.20513661635173
C        -3.69673938317271      -0.30797569243866       0.49997650624828
C        -1.47553369774853       1.55426999311126      -1.02957408336170
C         1.09976393675065       0.29461541472183      -0.29488078040964
C         2.35401939793616      -0.09668835936359       0.49806907842540
C         3.60456229959277      -0.07401879541805      -0.38729998949886
C         4.84633904285613      -0.46381357206588       0.40967919629628
H        -0.94693066109002      -1.62055448873998      -0.71700070581429
H        -1.92626705776494      -0.70538458638260      -1.89136216169420
H        -2.88357478275445       1.63694829221194       1.01301036458370
H        -2.22729127669573       0.25777706655066       1.93566706673208
H        -0.12648609962711      -0.57250593779507       1.28107033463102
H        -0.02884713287814       1.21076507751914       1.30765812032409
H        -2.76427392585352      -2.24495624091913       0.53619050430315
H        -3.69020505057474      -1.89420920160335      -0.98544015357157
H        -4.35966787523706       0.23701984500380      -0.20719619046151
H        -4.28715446849710      -0.65465506965449       1.37629728922514
H        -0.78608862316919       1.38952005777294      -1.88567362475336
H        -2.49396282082320       1.69705252955717      -1.45665062808210
H        -1.17977820796485       2.49728725619888      -0.51802353331851
H         0.95532291712297      -0.43081106109249      -1.12257909291168
H         1.25979805051938       1.30152371438497      -0.73704185032499
H         2.21993265642038      -1.11944074858312       0.91457304446067
H         2.48970826096125       0.61352179688598       1.34373730457253
H         3.75127549851507       0.94588948226354      -0.80493132302311
H         3.48097167733912      -0.78650206072796      -1.23196051599247
H         4.99990671493993       0.23989797301304       1.25546188259264
H         5.73800752615406      -0.42466457353611      -0.24855875067309
H         4.74234313864849      -1.49664608770310       0.80569768466688
P         8.09333834436109      -0.92904592051049      -2.86428272352139
F         8.26086964331004      -0.33913920329842      -1.25909430164160
F         8.01865359196712      -2.52107761893030      -2.22158359345729
F         6.37497412964472      -0.95338342329453      -2.86651068865210
F         8.13632306372718      -1.50497628986915      -4.48276507178397
F         7.98382792239055       0.70431025424039      -3.38691529336345
F         9.80717861147413      -0.96073968297698      -2.98616560972572
