28
C8H18ClN optimized with ForceField in AMS.
N         0.42684573408476       0.23165308005737       0.04012640017767
C        -0.55306020319720       1.25874782206019      -0.43489063028689
C        -0.06482103040737      -1.14074466686797      -0.28999320411535
C        -1.99688114711636       1.02592701623029       0.04997375995717
C        -1.49380971782759      -1.42157800975840       0.20908394429981
C         1.71278589995164       0.49774712977883      -0.68530994123280
C        -2.47212651434638      -0.37569411818704      -0.31365970091015
C         0.64780059571133       0.38039906510532       1.50416503135248
C         2.89309079182759      -0.42107916244623      -0.31424245626061
H        -0.58318133051702       1.27439394126888      -1.54966280780814
H        -0.23777411743995       2.27785997020238      -0.11294141192604
H         0.59325219211604      -1.91584250835548       0.15881545596686
H        -0.05059146041581      -1.29871456912495      -1.39307942033725
H        -2.66724752086742       1.76583479475319      -0.43568927253678
H        -2.08593791257464       1.19090035248399       1.14308269724449
H        -1.52146198951076      -1.44902165069539       1.31898699854829
H        -1.81340797559291      -2.42270790996698      -0.15195317056239
H         1.55988955266381       0.40517933778836      -1.78520845090489
H         2.04402856103562       1.54652435578405      -0.50501659481143
H        -3.47647410088553      -0.55319954652775       0.12858269851564
H        -2.56090163543362      -0.46461571052551      -1.41875937780227
H        -0.29626666128584       0.34004515882650       2.07994350237011
H         1.28077430540370      -0.43870551477448       1.90566812438161
H         1.13729358529057       1.35206866582155       1.73734670527320
H         3.77343664363521      -0.13947430094186      -0.92936221576108
H         3.18981155716654      -0.29929365551692       0.74676127337272
H         2.67131298961515      -1.48499072012587      -0.53004984134986
Cl       -2.30646294798360       4.11139973285392      -2.23550570935413
