56
C16H34BF4N optimized with ForceField in AMS.
N        -0.01296666207221       1.98997245069619       0.00986790614673
C        -0.68940308397091       2.89945122427842      -0.96635236793014
C         0.64971137637006       2.90182872275111       0.99294400394899
C        -1.02963124223780       1.14709131125353       0.72079565507603
C         1.01586955090608       1.16749656471434      -0.70742154936625
C        -0.21344828388767       4.31613192898237      -0.70778988043248
C         0.14493943615178       4.31140202481643       0.75097001113512
C        -1.77202835785017       0.13205787035257      -0.18196234241694
C         1.77411567046408       0.15673594605895       0.18710662096706
C        -2.87471605835445      -0.58700148465957       0.60541192956610
C         2.88192260343059      -0.54431178217245      -0.60939157240268
C        -3.62757528864126      -1.58985241296295      -0.27690718127577
C         3.63353614355876      -1.56355765624114       0.25492738918046
C        -4.69283822651769      -2.33789077106477       0.53337030948770
C         4.71824981214131      -2.27610256520041      -0.56197223503336
C        -5.45031205871844      -3.33654971681026      -0.33684675406015
C         5.47429743820040      -3.29511265284579       0.28555430063380
H        -0.49781338877241       2.62740395645091      -2.02957334610607
H        -1.79653493672942       2.90416007668763      -0.84162701327776
H         0.46781557581147       2.61481659986013       2.05391236354416
H         1.75599442045838       2.92918449010229       0.86355997441825
H        -0.55705914562545       0.58851132983806       1.55855653714747
H        -1.78731816847875       1.80781379896453       1.20356839590136
H         0.55071540044067       0.60821310380862      -1.54890526293421
H         1.76348835786972       1.84267585116616      -1.18589841705446
H         0.69118333894603       4.52924312576581      -1.31960613263341
H        -1.00213382007775       5.06714544005214      -0.93192378870693
H        -0.76393453480156       4.49874077013500       1.36495992814418
H         0.91804267868813       5.07578798155805       0.98385978437438
H        -2.22727894142674       0.64529707068207      -1.05453527282388
H        -1.06425478126427      -0.63495750984636      -0.55868921022757
H         2.22756536571029       0.67107324577306       1.06011908583419
H         1.07732207481987      -0.62066574761968       0.56279786226741
H        -2.41584603466246      -1.12512443926000       1.46372169125394
H        -3.59441667547494       0.16228334067574       1.00194046066371
H         3.60052988731022       0.21525177613912      -0.98800159464128
H         2.42874626184722      -1.06708985911820      -1.48010460258895
H        -4.11561626616842      -1.04685113997740      -1.11597367633566
H        -2.90735671401644      -2.32337975918012      -0.70144928655836
H         4.10132513947474      -1.03999008685869       1.11617866601629
H         2.91560734974033      -2.31648024578522       0.64798214227586
H        -5.41785542899141      -1.61170909053478       0.96087108772826
H        -4.20923061791256      -2.88717945607583       1.37030153966612
H         4.25131726214811      -2.80367118323249      -1.42197452249603
H         5.44183559321556      -1.53027654287936      -0.95684432886513
H        -5.97054695153139      -2.81004425375591      -1.16485021941372
H        -6.20803143316506      -3.86553436202541       0.27872452177251
H        -4.75067028496496      -4.08784868437461      -0.76068930461738
H         4.77384357705162      -4.05104818725363       0.69929524952428
H         6.22733427053849      -3.81510929557777      -0.34316360538863
H         6.00169408881332      -2.78828810058211       1.11960653622555
B         6.79378164661467      -0.45798854979392       2.98725881435476
F         5.69953319409382      -1.24892538018095       3.42833120264003
F         7.95729803575649      -1.26760727835895       2.89871240064831
F         7.01882676372938       0.59534345276425       3.91257743470657
F         6.50043647011298       0.08899727260127       1.70978698533764
