53
C15H17F18N2P optimized with ForceField in AMS.
N        -0.02924334248305      -1.30796601046481       0.36435143008181
N        -2.05786926699865      -0.40364039409579       0.25399656464793
C         1.30599375388922      -1.65481612716209       0.84846918859352
C         2.39035859747296      -0.92117448895047       0.04908126805698
C         2.27481487626440       0.60247930003501       0.19732082759983
C        -0.95938185580996      -0.58070547942368       1.01360946930832
C        -0.56098796124806      -1.61048149855061      -0.83742134935200
C        -1.81991061132766      -1.04976101199336      -0.90569902412420
C        -3.25412777481517       0.35702725205773       0.60708561668056
C         3.39573715963059       1.31621312292379      -0.54957251740082
C        -3.35302622159445       1.61932130978144      -0.24253948033378
H         1.40247132115959      -1.39454435455482       1.92573965697809
H         1.45536755698551      -2.75197480414896       0.75383650294540
H         2.31469098415251      -1.20224470271589      -1.02409096999132
H         3.38474555159054      -1.25255655178745       0.42025161802041
H         1.30140845353030       0.95017324948408      -0.21144205750794
H         2.32482157710159       0.88082426984453       1.27249027674543
H        -0.82841200902503      -0.16657968961200       2.00587572352529
H        -0.06633091251361      -2.18392931288587      -1.61061864758952
H        -4.15559976833867      -0.27372372299530       0.45136512854143
H        -3.21705438804173       0.64859525697119       1.67958615756058
H        -2.50504584099149      -1.10070773771849      -1.74196728654658
H         3.36068869504505       1.06548433541937      -1.63133527557957
H         4.38311453031153       1.02219820395536      -0.13455847189993
H         3.27429985393032       2.41350494032902      -0.43557864449636
H        -2.44656220565728       2.24543247260081      -0.09944671358646
H        -4.24570781067709       2.20541121686259       0.06112405162022
H        -3.44807891548810       1.35467050555408      -1.31683219016440
P         6.20075934255116       5.27493091373491      -0.58732998474838
F         6.69732726704913       6.32525235149026      -1.86171370714969
F         4.64305894007924       4.65231959266484      -0.97857501994587
F         7.83548586936861       5.74247336865132      -0.32417891033524
C         6.55250119025768       3.94401254739629      -1.94413894545336
C         5.19072448517824       6.90151469675056      -0.30210289183175
C         6.41347511313420       4.60777115262641       1.20178496480166
C         8.03473679209519       3.74539922956860      -2.32759507559244
C         4.11121327538099       6.88692559746138       0.81043414867748
C         7.42980323840799       3.47374024969243       1.43015306041135
F         5.88299397522291       4.29772930997866      -3.11001632061673
F         6.04939032402622       2.71439872273876      -1.55361330281120
F         4.52745326236925       7.24586100562696      -1.47613485487606
F         6.07634851854511       7.92462200085444       0.00133836469387
F         5.18403291614352       4.14926062657134       1.64027794674911
F         6.80431450463179       5.65092748132107       2.02471694384339
F         8.11101508833415       2.82098738531511      -3.35436690140764
F         8.76878811649591       3.26013041180571      -1.26810582877397
F         8.60633132852445       4.92350678471865      -2.77161587006314
F         3.35611948588258       8.04231357262304       0.70737550490096
F         3.25081722451394       5.81226050947256       0.68999595794335
F         4.67372927708967       6.88105628275881       2.07003085261803
F         7.15492602258081       2.37597863344322       0.64402016910949
F         7.35078903458862       3.06998099125275       2.75146472613536
F         8.72312773339455       3.90795203962248       1.20546247848851
