52
C16H16F18NP optimized with ForceField in AMS.
N         1.73441952700234       0.01629096718874      -0.48026296028648
C        -0.66099499129199       0.04820165206565       0.08302842717644
C        -2.08765871065327       0.00540005503469      -0.47574947096284
C         0.37796624300970      -0.01693920728251      -1.04127176461532
C        -3.12093537713629       0.05087112364112       0.65584832067754
C        -4.54376620647607       0.01871540144865       0.10582299649918
C         2.42334662073615      -1.15061088909406      -0.29001988463844
C         2.29439128013394       1.21597292951831      -0.13354051651414
C         3.71010991231413      -1.13407617051984       0.25359203733803
C         3.57821925446454       1.26709032129612       0.41446777889003
C         4.28969620056102       0.08405530056057       0.60409740400555
H        -0.50548652079115      -0.81345213308598       0.76901744561603
H        -0.51865929182742       0.98790524310312       0.66040283892050
H        -2.22623056221317      -0.92972473948572      -1.06224152365055
H        -2.24307383830848       0.87435888481566      -1.15271984990510
H         0.22460313505564      -0.94768334249349      -1.63255032106002
H         0.23671780853294       0.83603244191764      -1.74197451816070
H        -2.98629491585804       0.98099670529089       1.25006564517797
H        -2.97669527428935      -0.82145602045315       1.33019933135985
H        -4.72366998695015       0.89696377679311      -0.55014893506684
H        -5.26798303946737       0.04967514986067       0.94699504715636
H        -4.71259206639680      -0.91366430650764      -0.47399740952675
H         1.97712727313772      -2.10363375610893      -0.54881512055408
H         1.75004066133418       2.14098921975040      -0.28324559319985
H         4.25057694049786      -2.05932245551198       0.40582128226976
H         4.01789974598429       2.21698916775187       0.68871584271716
H         5.28636372659425       0.11098678336050       1.02498020277940
P         5.41911951957951       3.60130699715778      -4.77081184955246
F         4.97197326990053       2.75018644186861      -6.20244169085993
F         4.81451957324105       5.21206821348022      -4.86456770315173
F         5.80972257733307       1.93743385483600      -4.57199473788091
C         3.52415971676261       3.42741518612384      -4.42231929353717
C         6.63811973622691       4.24500041768398      -6.12983643780323
C         6.48968052336109       3.72492161865173      -3.17994615893411
C         3.02038903015359       1.99861881222043      -4.12437119284631
C         7.58645234114835       5.40907140541120      -5.74455448161875
C         5.96072588289171       3.03866537569186      -1.90780452658987
F         2.81850563139551       3.87411423397323      -5.53363992049303
F         3.14988969184740       4.23647824268757      -3.36083612388853
F         5.91072926248735       4.69066790635867      -7.22934166563916
F         7.43577041510036       3.18957789293950      -6.54580335443021
F         6.65979520571854       5.06404527204686      -2.87736034870255
F         7.73702164287453       3.17794038098172      -3.43314710318751
F         1.64716696912441       2.03380849407056      -3.95765029923610
F         3.57415145001786       1.50056621481765      -2.96641277065050
F         3.30149974678009       1.13478953367302      -5.16675989255237
F         8.20490965622355       5.87311119299836      -6.89248906540270
F         6.90758788289115       6.47067466149752      -5.17740113844385
F         8.58293068991266       4.99365758669796      -4.88539314769318
F         4.70143645578413       3.48897603139221      -1.57904037499183
F         6.80309128847412       3.34766375390973      -0.85424459225111
F         5.95426047777078       1.66295106417539      -2.04508525420557
