38
C10H22BF4N optimized with DFTB in AMS.
N        -0.39608483982349      -0.09955413471034       0.34807664740396
C        -1.46295750231306      -0.66482169630106      -0.53764172378801
C        -1.16935693128213       0.40009467575065       1.53306318925114
C        -2.65886042000695       0.27403161280651      -0.39074232625234
C        -2.46079136112293       0.97435263441198       0.96330261620846
C         0.28516118762100       1.03855452820634      -0.36260581545231
C         0.57052669084165      -1.16196831726746       0.77957743282133
C         1.45910696910367       1.66250613388034       0.39093475262711
C         1.33546519559245      -1.81292822932924      -0.36802331681672
C         1.96650800127376       2.87495424274263      -0.38720700605142
C         2.29698663092366      -2.85269661225696       0.20875526727313
H        -1.09696987326716      -0.74002319220568      -1.56167176455804
H        -1.70326060713951      -1.66304225455737      -0.16497759416077
H        -1.36468039369149      -0.45651666417649       2.17952296197615
H        -0.57354994186279       1.12207942756429       2.08933519321860
H        -2.68392506669053       1.00024040104460      -1.20593809769349
H        -3.58822590416479      -0.29740837930579      -0.41757336462345
H        -3.29073659709079       0.77416500984124       1.64264739070207
H        -2.38638910596718       2.05571998918560       0.83087822241540
H         0.62162640169971       0.65738789394098      -1.33076662472296
H        -0.48138196937767       1.79564421328182      -0.54620747600888
H         1.26297892415668      -0.70134453120679       1.48554300937501
H        -0.00953187142293      -1.91240103829087       1.32147522628161
H         1.15555866659536       1.97580288836659       1.39100846698082
H         2.27029844201212       0.94090530850994       0.50288165462961
H         1.91068042380544      -1.06472803839260      -0.91987579805478
H         0.64755260887270      -2.29744202917366      -1.06829154262183
H         2.29599718745955       2.58568806703352      -1.38659099489528
H         1.18358246284322       3.62884933076870      -0.48229695268240
H         2.80960346238347       3.31538663238144       0.14322397540689
H         2.98889401187645      -2.38002310237615       0.90567906359043
H         1.74601885406938      -3.63021014307773       0.73842786337966
H         2.86868672021750      -3.31458046078414      -0.59554235944842
B         1.39670905099242       0.38074150994588       3.74139361688270
F         1.90091685873852       0.34830693914168       5.00660190274438
F         2.40546539822230       0.18571538876708       2.76401616764790
F         0.76708992508051       1.61833120162957       3.45377271476623
F         0.42288586724188      -0.63767125088903       3.53894566464853
