49
C13H16F18NP optimized with ForceField in AMS.
N         0.79366993084059       0.03104836533079      -0.12854439681314
C         0.01267792548101       1.25800295581392      -0.46025919474001
C         0.00963566532031      -1.19873212108170      -0.44262441613210
C        -1.37705406110889       1.29415306860137       0.19993146230131
C        -1.37997225472423      -1.22164377881943       0.21874469195330
C        -2.17403570183410       0.03460830299476      -0.13354832878863
C         1.22193662204288       0.04074125363411       1.29442854524783
C         2.02053837019884       0.02374912537378      -0.96314333230903
H        -0.14004300239142       1.32941488721535      -1.56163565606799
H         0.57201377769923       2.17210483664495      -0.15671614876134
H         0.56663714283278      -2.10952346809901      -0.12499797207704
H        -0.14295320292188      -1.28681625645112      -1.54360998837142
H        -1.93194260926443       2.18067267405023      -0.17616504867333
H        -1.28805466259163       1.40998743145118       1.30025245137436
H        -1.29078229589218      -1.32096410530176       1.32068054520543
H        -1.93723622208377      -2.11253630783960      -0.14320358045283
H        -3.12911749620919       0.03994327068083       0.43443306742267
H        -2.42174089080159       0.02672543718520      -1.21682754918443
H         0.36356388622649       0.04762858350122       1.99425071399757
H         1.83321261129185      -0.85828335143973       1.53318159313259
H         1.83682089788837       0.94071348545068       1.51983517924100
H         1.77228934080829       0.01500618775071      -2.04781844063486
H         2.64426767184375       0.92552614252983      -0.76867451520886
H         2.64351906035379      -0.87523648486961      -0.75377862367189
P        -0.68179227641213       1.89938962740599      -5.52060137693122
F        -1.92481173187099       2.46861400842186      -4.46940833219683
F        -1.36613217198857       1.61154095133653      -7.07578675977567
F         0.02649454901159       2.40849125077355      -4.03811529200594
C        -0.91233375843590       3.66387409135290      -6.27678863848144
C        -1.69732694487898       0.31752685982794      -5.06089173286742
C         1.08394163149866       1.18561648193841      -5.77096427157557
C        -0.44487572553788       4.84261363570388      -5.39538452120180
C        -1.33516716664441      -1.00174281788293      -5.78953668185127
C         2.25497200622953       2.18156928128198      -5.86015666644843
F        -2.26250501006112       3.87199294157329      -6.53480663259643
F        -0.25433933126507       3.75728461803242      -7.49315857574055
F        -3.04624413858756       0.54180111185347      -5.31967660730717
F        -1.55735641066676       0.08330579434386      -3.70227717678613
F         1.08801467526426       0.44508323159732      -6.93938925656332
F         1.37551756421366       0.33345120520454      -4.71923924458622
F        -0.73747511615114       6.02948601152926      -6.04381652423494
F         0.91497333383451       4.80369670201842      -5.17975535420946
F        -1.09563750911113       4.85213601770007      -4.17528569631585
F        -2.30584064428456      -1.94548143887414      -5.50162098999502
F        -1.29573720581427      -0.84754391482028      -7.16219121461216
F        -0.13016433031406      -1.51275092730736      -5.35342477831587
F         2.06118561456300       3.10709653671550      -6.86237357544567
F         3.40982841990193       1.47991488728170      -6.15853832833506
F         2.45928506930252       2.82390678768491      -4.65280327480977
