25
C5H12F3NO3S optimized with DFTB in AMS.
N         0.34232631073285       0.25757454768540       0.08820457509013
C         0.25473416452597      -0.92752163829113       0.98749838527257
C         0.76788699949049       1.44804634078278       0.87349348943929
C        -0.98899307669027       0.51823601884882      -0.51764163863858
C         1.33183895376652      -0.00806419337755      -0.99222551588038
H         1.23478133796766      -1.10618805345685       1.42610243754529
H        -0.47335285783883      -0.72102522135651       1.76937113124606
H        -0.05557453883284      -1.79012178799330       0.40135159620835
H         0.86672213828208       2.29835272154813       0.20179680036101
H         0.01535211136714       1.65464214847065       1.63242387673578
H         1.72096755688772       1.22953745854045       1.35484843104507
H        -0.91779675537532       1.38666658132211      -1.17015957278199
H        -1.29368298644306      -0.35414232001228      -1.09282795498121
H        -1.70878892690775       0.70867045701194       0.27629278567371
H         1.40910259866232       0.87367582925468      -1.62516724445272
H         2.29384641983031      -0.23624344744316      -0.53469811369007
H         0.99261885339766      -0.86092750883086      -1.57699314657024
S         3.82859583033594      -0.74483719076721       1.89088793272899
O         2.78236707710837      -0.01445064916805       2.60207900967593
O         3.30779355161989      -1.49714372293609       0.75203698964275
O         4.78147486732821      -1.43259716614789       2.71301761858868
C         4.76002647311460       0.62783568464058       1.05652513933352
F         5.27000984632899       1.49623212318679       1.91642403750609
F         3.88357741259780       1.30014992066842       0.27532465523576
F         5.72987990624354       0.18494620602010       0.27160431496620
