40
C12H25NO2 optimized with DFTB in AMS.
N        -0.41877840041973      -0.02873711270254      -0.05744681837666
C        -1.54256275422511       0.31902531939803      -1.00000154941704
C        -0.60195764914523      -1.44341300630331       0.40660716884977
C         0.84353128093519       0.06873623957012      -0.86479194946764
C        -2.91996831415170       0.11396060612490      -0.39785131607058
C        -1.96763693029369      -1.69093421918050       1.04260809285534
C        -0.38518983283257       0.89271078660721       1.13397672482717
C        -3.09902807606304      -1.32090872559451       0.08271040158232
C         2.13630679985775      -0.20201482577595      -0.09688915306232
C        -0.04347942430206       2.34008944198030       0.82145333204216
C         3.32517598464664      -0.06418412199799      -1.04827658443420
H        -1.42304277661193      -0.30773277980878      -1.88635206781184
H        -1.43042357741355       1.36320470774169      -1.29204423536385
H         0.19189128869754      -1.67235556763844       1.12114687557959
H        -0.48235494301406      -2.08357785229659      -0.47240449686536
H         0.86545730756873       1.07090076679439      -1.29795471885450
H         0.74722693341107      -0.65020510475636      -1.68283714115018
H        -3.62828032760802       0.34753718253518      -1.19695248655574
H        -3.09270350051368       0.83056940349480       0.40827080646840
H        -2.06145622069448      -1.12602248746980       1.97399452646034
H        -2.01767307354239      -2.75419442368324       1.29459091680367
H        -1.37570419575568       0.85628661402680       1.58880786946445
H         0.33207815157807       0.46839618175742       1.84253512645551
H        -4.05888878392824      -1.43244689234718       0.59230859164615
H        -3.08628096067949      -2.00447198635340      -0.77295265223694
H         2.25411957119966       0.50788671686253       0.72496192447264
H         2.12896130747125      -1.21132353027217       0.32347774356093
H        -0.07294129805072       2.88735282610308       1.76380322101905
H         0.95091915894897       2.45099167215329       0.39299029803715
H        -0.78808988829467       2.77779847979998       0.15252519121542
H         4.25147369530695      -0.25824872795112      -0.50868249008141
H         3.24404769441453      -0.77675958653964      -1.86966317861412
H         3.36766017433792       0.94322277578159      -1.46291905580414
C        -3.93886417778402       4.24277275235556      -2.26423980449484
C        -3.09865772066745       3.01779871839635      -1.82135838904086
O        -3.00052294600768       2.07218364320454      -2.62553551601127
O        -2.58942375385045       3.08806718259145      -0.67639545720290
H        -4.32068602795620       4.09786461776839      -3.27308830793549
H        -4.76850758038407       4.37283497948840      -1.57011414395700
H        -3.31441884938433       5.13478913923552      -2.22841352533117
