29
C9H17ClN2 optimized with ForceField in AMS.
N         1.02517647000137       0.29137537969100       0.44161874187235
N        -1.00626479106138       0.32019722274798      -0.46143079015078
C         2.26801409973107      -0.19678122022172       1.03651436545333
C        -2.26912502827079      -0.13306977454096      -1.04102789457958
C        -0.00875548344701      -0.45452853508853       0.00679202361904
C         3.45158495745340      -0.00485966211858       0.08196538984703
C        -3.43805107600646       0.11444675854448      -0.08130665181377
C         0.67121411022790       1.57665648188789       0.24069966319953
C        -0.59008586544658       1.59454809597674      -0.31959875014586
C         3.28554770868255      -0.81780551130482      -1.20107537471391
C        -3.29931331347196      -0.69623905322317       1.20648787946584
H         2.17199168386747      -1.27508990104779       1.29290156102389
H         2.46326252801226       0.35450914552163       1.98151594639454
H        -2.21197952611061      -1.21744189512949      -1.28331708015388
H        -2.45186481634797       0.41140116764833      -1.99250643032084
H        -0.03422855017062      -1.53758798115519       0.02947763990667
H         3.56427204650630       1.07183403698692      -0.17204452807601
H         4.38079256850869      -0.33468214431277       0.59536125341735
H        -3.50366638055348       1.19653041457970       0.16631064593486
H        -4.38312466470494      -0.17933175482348      -0.58748036521104
H         1.28390598352689       2.43536274226640       0.48321963660602
H        -1.15844077103755       2.46971501428597      -0.60744853334448
H         2.42323475657444      -0.43969019590414      -1.79045307015037
H         3.12367020887865      -1.89054643521147      -0.96053206165776
H         4.20309238135991      -0.72687847809485      -1.81978332947788
H        -2.42517601265130      -0.34306357452736       1.79373512521774
H        -3.17312354339807      -1.77543830058961       0.97326544105347
H        -4.21341612206077      -0.57108344002013       1.82437988481964
Cl       -0.31356983959142       5.37860311187703       1.00563413506488
