28
C8H18ClN optimized with DFTB in AMS.
N         0.51710390985277       0.20478935999074       0.10409608660720
C        -0.39049948981418       1.16969400772066      -0.61172918254606
C         0.07876817175042      -1.20974591700854      -0.15092330989414
C        -1.86497708923101       0.95360952523754      -0.30305139018463
C        -1.39251427570258      -1.44060426951510       0.16484644077331
C         1.89079898595192       0.41683249085323      -0.48232349040466
C        -2.26552208570614      -0.48077954063003      -0.63919314236750
C         0.53296363685068       0.50119671116985       1.55897422011412
C         2.97989971869165      -0.46828656936923       0.09852733389972
H        -0.22071275601058       1.00735182076212      -1.68258344846293
H        -0.07301944010807       2.17773174849661      -0.33422272409516
H         0.70493800695742      -1.86492332994752       0.45750541773303
H         0.26184351145617      -1.39779275803605      -1.21531828321729
H        -2.42871768271069       1.65472825360765      -0.92377683617787
H        -2.09223919630138       1.17838142144867       0.74435776716661
H        -1.58793444662417      -1.32682527906514       1.23648939278992
H        -1.62212391445869      -2.47361157423090      -0.10868645252394
H         1.78979217803497       0.22742900357134      -1.55737472384712
H         2.13904604608355       1.46989806229478      -0.32528057267512
H        -3.31927114363894      -0.64254371346718      -0.40103585101230
H        -2.11544725445660      -0.65987164381314      -1.70785198020652
H        -0.48100127098775       0.47126038044233       1.94941987981586
H         1.13736728009098      -0.24265585373218       2.07331530727008
H         0.95405158375002       1.49355712648520       1.71242967156058
H         3.90970528142530      -0.21157938111024      -0.40897214441253
H         3.12078674880604      -0.30857612292955       1.16718067563619
H         2.78023094263793      -1.52318369019279      -0.08157655849965
Cl        0.41470616061096      -0.47661173713313      -3.25207969583917
