40
C12H22F3NO2 optimized with ForceField in AMS.
N        -0.88702252492310      -0.16596958255856       0.05114915969669
C        -2.02955843179094      -0.28983887242576      -0.90491154912446
C        -1.21453300466775       1.02425874579131       0.89559911088110
C         0.37969340272874       0.07620964519928      -0.71430900889466
C        -2.86015649305239       0.97529767290749      -0.82075860605796
C        -2.63492442406980       1.45781276450273       0.58447272476107
C        -0.80456478902541      -1.38780040897953       0.91552211773685
C         1.64896384611545       0.18528380287565       0.16523397328726
C        -0.44463127572274      -2.68014600446560       0.15953829950003
C         2.85285930559521       0.64173777171255      -0.66674051066801
C         4.10993176962171       0.74257384573147       0.19206742211899
H        -2.70645136033424      -1.13596578329860      -0.64400116551161
H        -1.70717158841772      -0.46112171996218      -1.95725877556481
H        -1.11153798229565       0.83067305006433       1.98783161847335
H        -0.55743710818565       1.89559398138998       0.67030160585444
H         0.54559240937543      -0.73198293455332      -1.46075020880423
H         0.27863094912542       1.01290798622981      -1.31079480180332
H        -2.47856440976335       1.72716261854545      -1.54644896257892
H        -3.93672898433236       0.77727517616136      -1.01692887896384
H        -3.34492376224933       0.95437039404098       1.27740999211636
H        -2.75737844641779       2.56056405950738       0.66061159999159
H        -0.06197958972588      -1.24690481092885       1.73108194543385
H        -1.77880352443058      -1.55379830893359       1.43065642468321
H         1.49233104131807       0.90503631418112       0.99539533108560
H         1.88937272411317      -0.80424383436709       0.60687736514784
H        -0.56738198546182      -3.54725234371768       0.84168363649045
H         0.61261683967648      -2.66762279024138      -0.17399922765298
H        -1.10110488856087      -2.83862558765806      -0.71973395405106
H         3.03558989098069      -0.08440513644399      -1.48861798203465
H         2.64491662679214       1.63738683675151      -1.11506445604227
H         4.33800798345407      -0.24019434824147       0.65426910183932
H         3.97025565529995       1.50007986774186       0.99239476589465
H         4.97095466395257       1.04642246788496      -0.43957690358014
C         6.91716024880175      -2.75662190421915       1.61672975667830
O         6.69009370292499      -3.84203114556757       2.12741590792204
O         6.16781688649793      -1.81897965254799       1.83679667454384
C         8.10895896842000      -2.56763134889529       0.72615764619688
F         7.68886006421490      -2.17053934396591      -0.53027063784237
F         8.82185695717110      -3.74883581019592       0.61128768222686
F         8.93334937514758      -1.59370261705172       1.25952587501472
