36
C10H17F3N2O3S optimized with ADF in AMS.
N         0.47382186239684      -1.52459254304006      -0.23061507513969
N        -1.03717650722048      -0.50337852997621       0.95052528043333
C         1.63709526419157      -2.36851251607733      -0.56203602680838
C         2.59356200973253      -1.66609785718097      -1.51624667536167
C         3.17113146830483      -0.37472518155595      -0.94265331546820
C        -0.01416758718456      -1.36429910703630       1.00630699466214
C        -0.24971601650567      -0.73275021887932      -1.09869562370439
C        -1.19512525081486      -0.08744463095901      -0.35470069136381
C        -1.74580523813592       0.03316556613963       2.12639511756793
C         4.12353611252890       0.30628709671839      -1.91753887894082
C        -1.52200958949394       1.53031061292227       2.25746570729628
H         2.14007937844508      -2.56144750672404       0.39725512374599
H         1.25694731828322      -3.31287998679050      -0.98443143273532
H         2.09929735291289      -1.48030442298469      -2.48938221506668
H         3.40537284127668      -2.38511834064017      -1.73013198532642
H         2.35846649811264       0.31628345858459      -0.66087606327317
H         3.68181030837367      -0.60338032700342       0.00812954645853
H         0.40159710260591      -1.79687805819998       1.91069533111387
H        -0.02470237008171      -0.67791675712666      -2.15557258948000
H        -2.80938113592972      -0.23606220917439       2.02201283302222
H        -1.31732521954283      -0.48411431751876       2.99594973552146
H        -1.94884911386228       0.63476068999799      -0.64067244342398
H         3.61252963318087       0.57226095708938      -2.85806866515308
H         4.97202796420090      -0.34954277842086      -2.17262825883928
H         4.52941208878137       1.23049585416414      -1.47983175433513
H        -0.44092081407811       1.73464234587684       2.26980840003567
H        -1.96094370304544       1.86933653674991       3.20660066681543
H        -1.99692577690124       2.09069301546946       1.43787855864047
S         2.07538426102024       0.04645246424009       2.80399544301070
O         2.73460289883959      -1.18713618851541       2.31798506839913
O         0.98985738861746      -0.19282841132954       3.77770252513594
O         1.75041104763863       1.02966793689259       1.75107654978488
C         3.41996926192965       0.89330956988751       3.79977553237127
F         4.51864187452149       1.11622031734905       3.02952786488172
F         3.79674387438343       0.13312319140164       4.85879147314784
F         2.98958442591835       2.09329189605010       4.27082170107519
