58
C16H22F18NP optimized with ADF in AMS.
N        -0.60947223235252      -0.98086942428689       0.05080387594429
C        -1.88892909776686      -0.14581833717805      -0.11163813364048
C        -0.04938236384923      -0.60264429299638       1.42815695108672
C         0.37797788516890      -0.63870621065039      -1.04522795364659
C        -1.96000513508256       0.76199302318270       1.11205953438157
C        -1.24309774907540      -0.05459184068717       2.18680199898742
C        -0.93320830603178      -2.46914554845074       0.06578244764188
C         1.68035324150298      -1.40939226123040      -0.95777389799482
C        -1.47908655997049      -3.01252598051337      -1.23447088377579
C         2.68791324958437      -0.92222690515734      -2.00120902826670
C         3.97463736687454      -1.74339845919400      -1.94578309212179
H        -2.73011503920858      -0.84986969481149      -0.13246754007959
H        -1.84629381187178       0.38790189835138      -1.06935723240785
H         0.42694873936314      -1.48438042091581       1.87507968107230
H         0.69674788644457       0.18770259544204       1.25831725140574
H        -0.13329072845063      -0.83190507499715      -2.00058903027799
H         0.54589443440083       0.44873196975064      -0.96535832986781
H        -1.42248000702107       1.70694344046959       0.92750840764367
H        -3.00172548646243       1.00768432836033       1.36574011821823
H        -1.87789563027917      -0.87446989070327       2.55661709514346
H        -0.92609389718485       0.54194680494615       3.05378503096850
H        -0.01178368323737      -2.98238558186208       0.34913950396451
H        -1.63859244186056      -2.61024177154015       0.89661146916695
H         2.12290851044749      -1.31473850093354       0.04772835510571
H         1.50061487674123      -2.48332399395405      -1.11228333620555
H        -1.71152398140958      -4.07375747241733      -1.05926198218398
H        -0.73723354876120      -2.97609067329733      -2.04514181674680
H        -2.40124114642646      -2.51231621811208      -1.56601674904073
H         2.23993941641827      -0.99539148660801      -3.00929971278568
H         2.91231954435640       0.14692089265148      -1.83242881553401
H         3.76727817319967      -2.80823792767940      -2.13004879406421
H         4.44241767080010      -1.67078374729228      -0.95196651969012
H         4.70281186086997      -1.39696176567445      -2.69397174478704
P         0.89821358030304      -5.23912441855052       2.30556761743995
F         0.97208363945439      -3.53659160203235       2.37733600364673
F         2.24809437986872      -5.41021096856140       3.24334440878643
F        -0.47986689762892      -5.07253019215904       1.35156617838763
C        -0.14919250539684      -5.03599970870750       3.96788161979948
C         2.13409355639873      -5.00989416500273       0.69107322533496
C         0.74600712387264      -7.22072164650121       1.99332321450278
C        -1.58995765117327      -4.44100363067337       3.90651475057200
C         3.29165238557789      -5.97895749902125       0.26198763069090
C        -0.28604392572609      -8.21106794616254       2.63084019009738
F         0.53142241054537      -4.18865873063433       4.81851715807793
F        -0.27572052605418      -6.22712140810017       4.64227416401743
F         2.83476436717015      -3.82935094351870       0.89210387196107
F         1.38364585617963      -4.81668511705679      -0.46574566370979
F         1.96765128433474      -7.80801937132172       2.23058860919616
F         0.48405600091266      -7.32611326606357       0.63739360949061
F        -2.10007927470841      -4.35744117853438       5.16508977848634
F        -2.44441353747758      -5.17897857100538       3.16782571370307
F        -1.58628939593064      -3.17073837696291       3.39357770057747
F         4.01097256387801      -5.35739954297643      -0.72957449651778
F         4.13318629115583      -6.21588950824636       1.28891817123673
F         2.87373082534874      -7.15086106513208      -0.25158845935871
F         0.08004664361032      -8.60559837549667       3.86890295735272
F        -0.34605047688613      -9.33578386173503       1.86099878124748
F        -1.53300915739874      -7.68472464715475       2.67255620646762
