42
C10H18F6N2O4S2 optimized with DFTB in AMS.
N         0.73828597011653      -0.10824051944968      -0.39248535139826
C         2.11208258551632      -0.25913992351573      -0.98125936090264
C         1.00587134942822       0.57993885355045       0.91164768917091
C         2.85788036657008       1.01742244775823      -0.60896793616934
C         2.12466241244138       1.57712621527729       0.61946239459414
C         0.10477614927868      -1.44658004668622      -0.15060599114252
C        -0.09674470685299       0.76196141511878      -1.29327279258252
C        -0.12225127307379      -2.25757950551907      -1.41645401918333
C        -1.53990252134675       0.93911584676425      -0.85152246081771
H         2.03148666399000      -0.41445595978161      -2.05524593873350
H         2.57313752223613      -1.13575416344582      -0.52074209468643
H         1.33627105986550      -0.18019239864331       1.62333532354900
H         0.09219816382386       1.04302335272687       1.28227626189601
H         2.83508814832228       1.73130545960068      -1.43342850832105
H         3.90048194152416       0.78782436865984      -0.38526650074920
H         2.78514926853480       1.65950715995004       1.48431636261779
H         1.71551443944326       2.56733700706686       0.40996579961246
H         0.77335212300371      -1.99060760275091       0.52222128795350
H        -0.83726989993951      -1.26798476091061       0.37302256687254
H         0.40163164471504       1.73050816516695      -1.34744030368443
H        -0.06432264729309       0.31320502608872      -2.28914995314453
H        -0.57305044629708      -3.20680126010956      -1.12832304706773
H        -0.79258732988243      -1.75835235210261      -2.11227200110799
H         0.81501045508648      -2.46477566341509      -1.92732175029552
H        -1.99430253295400       1.66688281028556      -1.52358104658775
H        -2.10443744209354       0.01130560067113      -0.92864951418887
H        -1.62010434313666       1.31994960011022       0.16594970896274
N         0.99506127657002      -0.15190524417314      -4.04911326218021
S         1.12675532497826      -1.47901227330682      -4.94987424327328
S         2.07330902577650       1.02622278853205      -4.22927833641790
C         2.68962934992117      -2.39470901462221      -4.45500600683977
C         1.98465584555300       1.76020246997419      -5.95378054041255
O         0.07930047777304      -2.35396100122100      -4.48239347455072
O         1.25851499173463      -1.23633024079449      -6.36089465447477
O         3.44243309516272       0.59631708691085      -4.04844501180298
O         1.60468050271744       2.09321099380795      -3.36276698371343
F         2.52566493241013      -3.68321837856699      -4.70469421498023
F         2.87578258500557      -2.25394090953382      -3.13445045287582
F         3.75827323094383      -1.96539309799926      -5.08643832173521
F         2.37004614145076       3.02378465591111      -5.87764061661121
F         0.74283069598015       1.71689707500184      -6.39879010492652
F         2.78073805639616       1.11600732891407      -6.77830951817117
