40
C10H15F6N3O4S2 optimized with DFTB in AMS.
N         1.12637736341177      -0.43329575656614      -0.88869598710462
N         2.34333887471634       1.31500257968892      -1.18713410539750
C         0.59839012306450      -1.67240435153693      -0.32422377071524
C        -0.44905016231108      -1.37874634563933       0.75322126057022
C         2.17954968456734       0.23582701187942      -0.42678131329852
C         0.60245026620321       0.23594808552284      -1.96137124181002
C         3.45444184571934       2.25738103226401      -1.07195319823930
C         1.37755735055128       1.33571878749629      -2.15624250067089
C         0.14795374797268      -0.67160658485962       1.96714993308623
C         4.63471010005240       1.76016298615965      -1.89929379089906
H         1.43773315582903      -2.23037100212287       0.09765806354716
H         0.15632880052691      -2.24547123933554      -1.14286369006970
H        -1.25346435987337      -0.77409608828083       0.32207442931693
H        -0.87366459161028      -2.33879379512711       1.05986887828648
H         2.80273290917055      -0.05380508262379       0.40328043001633
H        -0.25900263503518      -0.12382291884531      -2.49634059995119
H         3.10610395657034       3.23251650472757      -1.42189058916084
H         3.72767549652965       2.32312337818630      -0.01666279492919
H         1.31718667188162       2.12107381808641      -2.88917155852580
H         0.50331038667920       0.32299935420373       1.69702783108458
H         0.98493265574419      -1.24301045086615       2.36779120794613
H        -0.61105194982876      -0.56895194791947       2.74189688115881
H         4.96226140541386       0.78962105130969      -1.53042533294566
H         5.45622678865323       2.46809436951607      -1.80432406904834
H         4.35712082731258       1.67062351644167      -2.94920950340169
N         5.57208389633323      -1.54809077470442       2.24962732564158
S         5.33762652387290       0.03369369768448       2.16920904265900
S         4.53948806128785      -2.43418618127306       1.41135338425690
C         3.89937244753495       0.44640637394014       3.31966967797819
C         5.05468199977422      -2.32309921640299      -0.40263865067139
O         6.47167201130507       0.68784880784977       2.75367523907590
O         4.86297813895211       0.51701145711803       0.87602796543192
O         3.16883133516423      -1.93067353763725       1.39166801176917
O         4.73907584422391      -3.81119401339632       1.75677129929205
F         4.23059843278705       1.44542428681170       4.11750211512325
F         3.54405849045578      -0.59209954566766       4.05211526946386
F         2.84735062952304       0.82969631749913       2.58904532181623
F         5.11428328696073      -3.53311828980046      -0.93023971757821
F         6.22653664717080      -1.73256293447602      -0.54441960226343
F         4.14432096304276      -1.62041239980454      -1.08748917354042
