49
C15H28F3NO2 optimized with ForceField in AMS.
N        -0.68580781209451       0.51464420455157      -0.20757990582474
C        -1.65896616724962       0.24634061874012      -1.31656040334654
C        -1.24233007199294       1.59882545385604       0.66777989943462
C         0.57328629298983       1.02180620794394      -0.85627623265356
C        -0.42681230459521      -0.71574336532982       0.62071625120592
C        -3.07877912944958      -0.10089603506348      -0.83762898851879
C        -2.66572924541256       1.31730569361505       1.19149556000330
C        -3.62860601296029       1.01172419481982       0.04832307102292
C         1.76452365681246       1.28835977837643       0.09794348270754
C         0.24258016444228      -1.89837956716084      -0.12239147987330
C         2.97043191822829       1.83374465693962      -0.67856736942532
C         0.47595651769221      -3.07611927633839       0.83302009122829
C         4.16292074056182       2.06849114475631       0.24510907885362
C         1.13085399109510      -4.25154307634697       0.11212595006137
H        -1.30079478786182      -0.56001683005484      -1.98928083476796
H        -1.75135158523510       1.14632512962614      -1.96897280022062
H        -1.27676677048459       2.56656060874642       0.11581276511582
H        -0.59872131730569       1.76199032534572       1.55865756900506
H         0.36259655125122       1.97350499454246      -1.39787016469092
H         0.91281027294033       0.31708794763131      -1.64788291683222
H        -1.36712055244655      -1.10311102064594       1.05829318741014
H         0.19761636957703      -0.45757101334978       1.50393981011840
H        -3.09935973831780      -1.07268830434552      -0.30293645511773
H        -3.74038393360943      -0.20997053231863      -1.72412718165082
H        -3.03174841839267       2.21456500107617       1.73609113725068
H        -2.66272700647895       0.48206121843659       1.92225133285846
H        -3.78167844068123       1.92885651659812      -0.56211193722294
H        -4.61334923831871       0.70567063267257       0.46283106953877
H         2.07843811483956       0.35130242826882       0.60137199802627
H         1.48568617936518       2.03433809682850       0.86952626873449
H         1.22425914203091      -1.59764739759457      -0.54106187879832
H        -0.40694349111816      -2.25365747391167      -0.94755471295233
H         2.69936293154958       2.79566888907108      -1.16601069505105
H         3.26744975501845       1.11052665361848      -1.46922365027005
H        -0.49479735666786      -3.41278931664255       1.25822792574421
H         1.13450889161854      -2.75659983676832       1.66998482552923
H         4.47707617889913       1.11430315787721       0.71948226885205
H         3.89999525441381       2.80237615254610       1.03646005967447
H         5.01564950598955       2.46981750988354      -0.34206251972522
H         2.12025282902216      -3.95187243070939      -0.29444684352964
H         0.48389531666942      -4.60348569762139      -0.71957927924510
H         1.27917265053763      -5.08987378859334       0.82494437799113
C        -5.91982198382285       3.49372695380725       2.00585743566099
O        -5.60270355669333       3.60272428018636       0.83220840392226
O        -6.70152331872379       2.61830079821341       2.34060036718924
C        -5.35955579512712       4.42936205382006       3.03511362116988
F        -6.39136145301321       5.13190076907066       3.62960891160521
F        -4.48153741526533       5.32584002745313       2.45100978999730
F        -4.68649750562559       3.70473039287648       4.00123166900550
