31
C9H20ClN optimized with ForceField in AMS.
N         0.26299480554803      -0.10433516346428      -0.20189887718792
C        -0.59604444996174       0.72381180380747      -1.10860797533434
C        -0.50386872447420      -1.32802118282658       0.20023989594324
C        -1.96089595102560       1.10061956054947      -0.50674549352994
C        -1.88317063199375      -1.03082470228783       0.82172548080751
C         0.67801370054854       0.65802962597280       1.02690370621575
C         1.45510769987687      -0.53328419131570      -1.01086146976747
C        -2.72951574944721      -0.15064696070346      -0.09318982709820
C         1.55149575389484       1.90180680717626       0.77760158350368
C         2.52304967079092      -1.34490312708024      -0.25214974753150
H        -0.80176717101327       0.16690857935644      -2.05294211394642
H        -0.07653530407574       1.65195312892679      -1.42557864225555
H         0.06290513974174      -1.92315376384868       0.94589871886496
H        -0.67033397674209      -1.99044180737944      -0.68060186709345
H        -2.55356748073138       1.64564353695171      -1.27296833500403
H        -1.84393139689937       1.78903062685660       0.35513236432971
H        -1.77426353987904      -0.55534369795154       1.81850671486212
H        -2.41725337246028      -1.99218227224686       0.98420775729836
H        -0.20192860013806       1.00345650968153       1.60288248352469
H         1.22320014203856      -0.00724361164357       1.73104597623145
H         1.12877557183214      -1.15653376084146      -1.87505802649954
H         1.95786451013142       0.34664040096475      -1.46914965628358
H        -3.66134582763567       0.14454433728145       0.43554765546226
H        -3.01700942474368      -0.72713657838838      -0.99999139368315
H         1.81259183921430       2.35673150478157       1.75634778771242
H         2.50535980792888       1.64826273284238       0.27511418632716
H         1.00878315480686       2.67390377561861       0.19735053829328
H         3.32608226304083      -1.63107316425266      -0.96348375630460
H         2.99964911718994      -0.74920179805423       0.55148322263125
H         2.10898352534911      -2.28316338764408       0.16652444052417
Cl        0.74701476098810      -3.95114657173884       2.99087955778771
