31
C9H14F6NP optimized with ForceField in AMS.
N         1.10875292451794      -0.00294396188759       0.53203220640009
C        -1.25652408616961      -0.00150559166338      -0.13165717004783
C        -0.26932067311604      -0.01382928742296       1.03932176843470
C        -2.70701582648371      -0.01398949867795       0.35957539814240
C        -3.68075081981297      -0.01689757172809      -0.81436336015048
C         1.73441092771192       1.18997365068725       0.29019662956059
C         1.74094568284081      -1.18527603780717       0.25717252978642
C         3.02769784062026       1.21840515106527      -0.23842388223159
C         3.03398727230265      -1.19210078857089      -0.27268317847105
C         3.67792806862347       0.01858945986809      -0.52242677165489
H        -1.07433169547979      -0.89455539492992      -0.76903772532904
H        -1.08242537510957       0.91058374302298      -0.74295746705968
H        -0.44160596218154      -0.91650362474746       1.66770581198584
H        -0.44728202797291       0.87052258443231       1.69165170993382
H        -2.88618056051093      -0.92094496016705       0.97724953214853
H        -2.89808169261598       0.88576169214116       0.98434660516894
H        -4.72332132100320      -0.02311154882498      -0.43412891043611
H        -3.53552589317801       0.89053175296021      -1.43510310320197
H        -3.52402637415006      -0.91839630477041      -1.44382816249932
H         1.23095390103089       2.12723638939593       0.49544639753649
H         1.24275108131039      -2.13064293912704       0.43637006176546
H         3.51880288770800       2.16316759600020      -0.43074077461241
H         3.52963477544027      -2.12855167381978      -0.49240668243897
H         4.67798992573936       0.02694403586281      -0.93693922018062
P        -1.74907634416932       4.21968296162928      -2.70142569596550
F        -3.03660519608711       3.08482893515874      -2.67348193490124
F        -2.90837236780782       5.46927440175889      -2.91551836308945
F        -1.85628708006592       4.39344176129299      -0.99539014762877
F        -0.50836645782553       5.40497644038001      -2.78499612879307
F        -0.59095941055672       2.97122801869509      -2.47381315912120
F        -1.63962160664924       3.99141133999346      -4.40054916895011
