29
C9H16N2O2 optimized with ForceField in AMS.
N         0.07691434170289      -0.63131562255029      -0.45533530516631
N        -1.99047197079274       0.12079769597358      -0.13582959577999
C         1.45728723407246      -0.72667403289763      -0.92777529497279
C         2.44908439021788      -0.40901381356633       0.19804699357241
C        -0.82572320101096       0.31384013101500      -0.78422850921674
C        -0.54005827942546      -1.45043600788006       0.42071828613150
C        -1.82316788127353      -0.98209221746265       0.61951538894530
C         2.30452052309866       1.02712073152199       0.69988912106652
C        -3.18404469992451       0.95418346703006      -0.20408507608903
H         1.62143286314448      -0.02428762615579      -1.77469949964177
H         1.64547861910442      -1.75489121998383      -1.30496826522791
H         2.29972873904524      -1.11302067658340       1.04500387723258
H         3.48241617974371      -0.55116940957879      -0.18539607913254
H        -0.63134678261635       1.13524908054834      -1.46291409355895
H        -0.08863997200344      -2.31606016916420       0.88788465764712
H        -2.57248949057477      -1.40754309023118       1.27455966154457
H         1.31554648098194       1.17114348933076       1.18437815861431
H         2.40817989576295       1.74452154579888      -0.14189864225566
H         3.09629622916784       1.24077264165179       1.44830684307265
H        -3.02662036325760       1.80380016467702      -0.90247525715188
H        -4.04264229164601       0.34838177861224      -0.56184952536871
H        -3.41541994258105       1.35794301576616       0.80412199648819
C        -0.12180397613029      -4.12411045495978      -2.87140169613972
C        -1.10696641315660      -5.19315758763526      -2.51817508278288
O        -2.30219366868950      -4.98899902963013      -2.65424892917959
O        -0.72078888277223      -6.27115413861235      -2.09542284157204
H        -0.20894039136768      -3.87999665203854      -3.95095629591443
H        -0.33032052194689      -3.21255193139938      -2.27319816765732
H         0.91595283402713      -4.46187921519621      -2.66260190030687
