27
C7H13BF4N2 optimized with ADF in AMS.
N         0.92649986839210      -0.83457078162773       0.62974220120711
N        -0.71062922587060      -0.17438616440585      -0.62998813038186
C         2.30246389699902      -0.99753508911761       1.12676536499016
C         2.67183548365812       0.01668894715522       2.20648573845152
C         0.57486024209754       0.03634209915887      -0.32314846275587
C        -0.16192059332060      -1.62646961648638       0.93648577459386
C        -1.19413478071763      -1.21095225036043       0.14544071136894
C         2.66551862059128       1.46374972501521       1.71731891223648
C        -1.42184018452977       0.52777506224246      -1.69670066400537
H         2.95141222586723      -0.89494583795965       0.24249971730197
H         2.37431070893373      -2.02910499469124       1.50112220553780
H         2.00346840011313      -0.10577611030556       3.07858082284341
H         3.68751133741902      -0.25609347696958       2.54418891282119
H         1.24247604360594       0.74030256105931      -0.81058499569176
H        -0.10257824354141      -2.42593617747656       1.66484975921808
H        -2.21118048588831      -1.57082665033264       0.05243050391927
H         1.64411892518992       1.81088843997797       1.49514450344058
H         3.26944696377609       1.57006915894661       0.80268671674366
H         3.07534374557079       2.13337321523933       2.48854120529936
H        -0.67502696281252       0.82974620418850      -2.44401193897941
H        -2.13529105058904      -0.16836181303310      -2.15244161384643
H        -1.95173276353944       1.39819708454011      -1.28711995939884
B         2.53225240867622      -0.06227637872658      -2.65802861454012
F         3.41074560163684      -0.23857029760805      -3.71651014624275
F         1.96800705925660      -1.30031068886936      -2.21497774269594
F         1.44705174125328       0.82188828500310      -3.01086537897921
F         3.19946767817245       0.53696518704362      -1.51842169395585
