53
C17H29F3N2O2 optimized with ADF in AMS.
N         2.26767945097275       1.06933497303764       0.64764693337106
N         1.95779197843516      -0.87037974411649       1.54753229753895
C         1.54131005015697       2.73295760184457      -1.02696250940373
C         2.12430872087921       2.50550911113583       0.36754526759468
C        -0.17834722033430      -1.94702846666543       2.13276016502660
C         1.32857434305258      -1.90739733904508       2.38451664946208
C         0.16703186923753       2.09352825740097      -1.24331652099980
C        -0.55855271665009      -2.07764488198251       0.65939068985141
C        -0.96639950658466       2.82691159585299      -0.52888942694708
C        -2.06569505246978      -1.98608740812333       0.42903396668638
C         1.68817814351907       0.43929088888032       1.68145685517408
C         2.91094531490254       0.14743166383011      -0.15827710662499
C         2.70786804860830      -1.07735916739537       0.40979911940091
C        -2.31038063225105       2.11260072978316      -0.65825238645397
C        -2.44876244340539      -2.04055142350921      -1.04817321795640
C        -3.44082484913078       2.85576778566527       0.04919386242149
C        -3.95243097851486      -1.89591010054464      -1.26778915297946
H         1.47556794776751       3.82499625431386      -1.17710129355488
H         2.25832101180359       2.36321912555778      -1.78093449418704
H        -0.61364405938343      -1.02836938477080       2.55919529978558
H        -0.59008202337819      -2.78888703172060       2.71659378015194
H         3.11466596700827       2.97635248732617       0.46839025617962
H         1.47042797569596       2.90446015768087       1.15557126241143
H         1.53676112569067      -1.65559834728274       3.43539639041907
H         1.81967220887844      -2.85652164787324       2.12383216326910
H         0.19043564985190       1.03773749417772      -0.91441541252481
H        -0.04163805018653       2.06594647193365      -2.32743918285319
H        -0.17428125325719      -3.03045087157518       0.24592827121551
H        -0.07534838924471      -1.27106052884007       0.07768402064266
H        -0.73397108517780       2.94102360752085       0.54119435614628
H        -1.04942132682165       3.84990623145695      -0.94312819857071
H        -2.43773575606442      -1.04271949524013       0.86925236776256
H        -2.57772316228026      -2.80218182200446       0.97221316155344
H         1.12155538787200       0.83555692598780       2.58520355030689
H         3.44786112103747       0.42977037534457      -1.05443476176756
H         3.03162876163078      -2.06463977897062       0.10344546007057
H        -2.55496849278297       1.98063477997714      -1.72866357122128
H        -2.21455120069432       1.09952716150334      -0.23058561438055
H        -2.09628872290315      -2.99421968568685      -1.48371013558837
H        -1.91720158303038      -1.23588154215218      -1.59018293015986
H        -3.22750070849263       2.95895686388720       1.12374719707840
H        -3.57186904289923       3.86700634820644      -0.36922295615611
H        -4.39713077447324       2.32101071647435      -0.05491832650699
H        -4.21363891737328      -1.95476360639200      -2.33517012549866
H        -4.31019760999857      -0.92726645602313      -0.88283608637281
H        -4.50567708399550      -2.68885031598295      -0.73814564738398
C        -0.49269198535879       1.27863674053805       4.54198634734193
O         0.57539404618287       0.73424175829082       4.10930658839982
O        -1.05799813048722       1.21628276504455       5.63355577623595
C        -1.19156132414153       2.15238197533388       3.43953611865811
F        -2.31809153689103       2.78530610603734       3.83629772340740
F        -1.54004475246038       1.36812030231185       2.34992401817372
F        -0.34533725776623       3.12993473806098       2.93715883835464
