49
C15H14F18NP optimized with ForceField in AMS.
N         1.10716488874231      -0.04228118524746       0.49110797339489
C        -1.24816193880505       0.07446981564810      -0.19781108940113
C        -0.27767922051951      -0.07650912702517       0.97688646927715
C        -2.70526000061539       0.02692392158608       0.27203413043910
C        -3.66493400465518       0.14376168455261      -0.90878959724142
C         1.75113747824422       1.15792538451441       0.36088147230880
C         1.73302628722591      -1.20680303474530       0.13871245602315
C         3.05620741888640       1.21245972554928      -0.13433917944663
C         3.03921723419348      -1.18814755847029      -0.35631805410675
C         3.70188313487056       0.03054531950755      -0.49373362536853
H        -1.06610378797928      -0.74428486168762      -0.92850056366293
H        -1.05660924900873       1.04689808056696      -0.69962999792842
H        -0.47549141959727      -1.03424240299719       1.50860151536385
H        -0.44649465707288       0.74122759538225       1.71307629081751
H        -2.89961682416613      -0.93211928427803       0.80004770641850
H        -2.89788832634856       0.86399811931330       0.97803986349580
H        -4.71214469505294       0.12076084081908      -0.54038470055638
H        -3.49814486841965       1.09979204517630      -1.44979767300193
H        -3.51694226628886      -0.70470763387267      -1.61060168469828
H         1.25367818583359       2.08161935094628       0.63198901342240
H         1.22095716161072      -2.15737831316961       0.23144533115797
H         3.56030895141871       2.16424682858905      -0.24129168994050
H         3.53079538621445      -2.11126112297999      -0.63486811184317
H         4.71261714122253       0.05893753435646      -0.87971023741536
P        -0.27772110089043       2.97056568879056      -4.32529876048430
F         1.44469227409699       3.04921759813168      -4.28764091397250
F        -0.80086194362563       1.84363044511359      -3.13380833634472
F         0.24460076819828       4.24067480582515      -5.36177894551832
C        -0.06483189537035       3.91792518337786      -2.65454678902021
C         0.30516749258136       1.35353370170084      -5.21510029477068
C        -1.94582012457601       3.34528781047154      -5.20162794461901
C         0.45922483061765       5.36651979918876      -2.76165402292488
C        -0.78215725839111       0.31948690520252      -5.60448798338201
C        -2.58148149422882       4.72924095864562      -4.97328222861407
F         0.83939857977345       3.22714053613788      -1.85767409514180
F        -1.26451860861431       3.94935321950105      -1.96108152392830
F         1.20501428825377       0.67518456935073      -4.39816505536215
F         0.97004505778961       1.70525687682075      -6.38016716457058
F        -2.86924648120312       2.39935501188836      -4.79339392984391
F        -1.77229701780525       3.21701098400229      -6.56972404875456
F         0.63107307795546       5.87529035764824      -1.48639161181132
F        -0.43438605070062       6.17938779079244      -3.42312252944994
F         1.68031421799012       5.41770297667354      -3.40845507414547
F        -0.15590536113006      -0.84125331348962      -6.02413290441025
F        -1.59899178983021      -0.00770629429178      -4.53868418003012
F        -1.55896000793072       0.76400736247801      -6.65419968259951
F        -2.78676832878852       4.98126695576262      -3.63421578315967
F        -3.81696265099503       4.75596096195377      -5.59615226195869
F        -1.81217226360996       5.73228064808922      -5.53343840479073
