44
C14H26N2O2 optimized with DFTB in AMS.
N         0.54694805005619       2.51563706999319      -0.34106626771841
N        -1.47358451001695       1.86073185664290       0.02322288553799
C         1.88822209145895       2.59879809494832      -0.90743571409841
C         2.84767727032295       1.66822505769168      -0.15946377358088
C        -2.71728075831550       1.10445143229580      -0.05153657950295
C         2.46318235879439       0.19751468172988      -0.32559381558211
C        -2.61176908275147      -0.17758284367847       0.78350995824103
C        -0.42562243462588       1.71429932363851      -0.78538752937371
C         0.14088392288579       3.11945258853606       0.81618757064521
C        -1.14143454657267       2.71692133466527       1.03773905360864
C         3.36219514475338      -0.70584129002089       0.52330434561847
C        -1.76049303031974      -1.24805533156216       0.09540741309148
C         2.83406437549144      -2.13886168940401       0.53819640783736
C        -1.47450850731881      -2.40633354630980       1.04789970693788
H         2.22114298414570       3.63686112402367      -0.82185851884285
H         1.82166226255360       2.33198784980137      -1.96689982922526
H         3.85578681090687       1.84933032464287      -0.54514143673999
H         2.82714268494664       1.92943646856959       0.90276633656017
H        -3.51420005125542       1.74650101414725       0.33339496485341
H        -2.91941074365773       0.87931475831703      -1.10321925622111
H         2.52516488552734      -0.09199680677255      -1.38167550004676
H         1.42832413493631       0.06627398661636       0.00468174211395
H        -3.62438798932699      -0.55389658925635       0.95668675561273
H        -2.16164563390869       0.07192859296990       1.74780473310510
H        -0.39198297462503       1.11731930477532      -1.67909860901840
H         0.76461588271002       3.80989187083558       1.35172993352459
H        -1.82465425877768       2.94572403744843       1.83569203875486
H         3.38655545996903      -0.32351380188144       1.54804998528944
H         4.38563251765822      -0.68835280684358       0.13206072514661
H        -2.27084126395927      -1.60734817271912      -0.80601385832750
H        -0.80668728145109      -0.80390810090445      -0.20294672258765
H         2.78258618028888      -2.54295821302978      -0.47456355078183
H         1.83445177186534      -2.16269624613159       0.97397914372008
H         3.48919728151607      -2.77505788994380       1.13417982456964
H        -0.89217753544704      -2.03947525600727       1.89365769899323
H        -0.89998225376403      -3.17759480686934       0.53426179350466
H        -2.40225872926291      -2.84652706571058       1.41727770826207
C         0.97596925020931       0.09938167515340       4.05205253072036
C         0.81143493639199       0.80816589203007       2.68252212985105
O         1.39160945556876       1.90665052985570       2.55480707571101
O         0.11800521661621       0.21900650649316       1.82721392117663
H         1.87906901871007      -0.50968659082036       4.01246119286417
H         1.08243871310041       0.83670782711438       4.84518108867975
H         0.12190292297304      -0.54718788927018       4.24605812851624
