43
C11H24F6NP optimized with ADF in AMS.
N         0.02714521958397       0.21918799665677      -0.46871051518619
C        -0.68613983809398       1.42055726638185       0.14447263760490
C        -0.76994918367559      -0.23671932676059      -1.68571135126724
C         0.15422977100507      -0.86936413010522       0.57149654837805
C         1.39103550840709       0.65701397467578      -0.98647514969543
C        -2.14449801313409       1.14329017426749       0.47806602495788
C        -2.21522536073569      -0.56547067245666      -1.35880859678576
C        -2.92112863680220       0.63980809443595      -0.73790443791807
C         0.88824429905736      -2.12391335349063       0.12851784696802
C         2.37834655924184       1.13609513431315       0.06271480822934
C         0.91193197835495      -3.14200297937129       1.26899152474038
C         3.59560355456646       1.74048444719103      -0.64317554641522
H        -0.11963271494493       1.69649670804691       1.04358518111167
H        -0.59984746522260       2.22625554363185      -0.59992609339899
H        -0.71288063082790       0.60231183384448      -2.39607919620418
H        -0.23095634849632      -1.09195028603149      -2.11530329369757
H         0.66328332902595      -0.40887684011976       1.43265507188153
H        -0.86429727028644      -1.12516595070925       0.89073081492976
H         1.79481073654282      -0.20209589260882      -1.54344038910133
H         1.18289580180195       1.45663763669775      -1.71023779526813
H        -2.23541020281663       0.43754324457761       1.32278961848275
H        -2.56610851229460       2.09978337632227       0.82985874215220
H        -2.69787630122668      -0.84309699289023      -2.31057423386809
H        -2.28954870362114      -1.45128460652398      -0.70257014171089
H        -3.95184558807737       0.37645481501749      -0.45006136252418
H        -2.97401026687473       1.44623478989369      -1.48827273945020
H         0.39258560980175      -2.57307354705237      -0.74738501511985
H         1.92198734089119      -1.88479666388071      -0.16787353319972
H         1.92373433346131       1.91384539568471       0.69643103030133
H         2.70036927730739       0.31092435524911       0.72143963073669
H         1.44484761404042      -4.05190291428369       0.95848832911219
H        -0.10763566486012      -3.43229524602001       1.56757367144361
H         1.42319956482393      -2.73628829325239       2.15601919782217
H         4.33232049704426       2.08811581198161       0.09549385449880
H         3.29176072841793       2.59673872289410      -1.26395510347872
H         4.08838402241764       1.00247779580833      -1.29502704689085
P        -0.17307411939189       3.56575812317666      -3.41847510719316
F         1.12908603138928       4.25276080553351      -4.12800040565287
F         0.63501370329439       3.57076761440769      -1.93525130182342
F        -0.82238971972454       5.02370062798215      -3.06401271927552
F        -1.46272179227872       2.80595416116877      -2.64092387595761
F        -0.98192886215092       3.48701590490452      -4.83695942021086
F         0.47473703246013       2.03853712701186      -3.70191818505721
