55
C15H20F18NP optimized with ADF in AMS.
C         2.78609142323488      -0.13963001546227       3.91884845438182
C         2.44822885466254       1.05238745670972       3.01286281170934
H         3.30201399578126      -0.73698826595103       1.17214099076834
H         1.68752710447367      -1.52102024345814       1.01612143292660
H         3.34205716330269      -2.12193038260105       3.11430050420924
H         1.60738585899920      -1.93379851337153       3.43213681472502
H         2.19590365207216      -0.13667629541927       4.84610598908678
H         3.84761015439010      -0.07603472907420       4.19411705388862
H         1.81333455496198       1.82153901394186       3.47261309822496
H         3.35762944721471       1.51436314329437       2.61416627203988
H        -0.25034269588807      -0.17906120135741       1.31003057331083
C         0.25186741168222       0.35301508718033       2.12626670047350
H         0.13396378224481      -0.20423297653932       3.06324313430628
H        -0.17028893809663       1.36023790944885       2.23654667399541
C         1.93950965919389       1.35253576950794       0.59654689839476
H         1.57368474563236       2.35549106388099       0.87106522816587
H         3.03013545886074       1.40512427799935       0.47811838990959
H         1.56224473472648      -0.20126799331037      -0.85739746667312
H         1.61555776026850       1.77922801665804      -4.03692437368516
C         1.79411162944150       1.68150869342308      -1.87131951023860
H         1.51512427049747       2.74055180601855      -1.72367898746580
H         2.89578922280401       1.64505979076111      -1.88709905165777
C         1.24029744403626       1.17404613396868      -3.19865887017140
H         0.13904320648189       1.21347379674608      -3.21846816142858
N         1.70621985271006       0.47551834262723       1.81259947108058
C         2.33072486532650      -0.90128207015921       1.65296611957490
C         2.50715028645566      -1.40831792138099       3.07676746274146
H         1.54841015317088       0.13135977159257      -3.37564937703648
C         1.29205460443351       0.85344421095996      -0.68280215714997
H         0.19056350672741       0.91487845975924      -0.63161982984967
P         6.26684255719188       1.12872025551977       0.40847579913400
F         5.01221349717592       0.52849093740019       1.40917497245268
F         5.08567601552176       1.63550788167819      -0.67993192569357
F         7.42716022372482       0.60956048145423       1.48046450140715
C         6.00461082218075       2.78050860674589       1.50544878693156
C         6.30725699607503      -0.71637489339401      -0.35181417230724
C         7.59871218125524       1.89270449590359      -0.86464975189029
C         6.33903433959381       2.70692158801267       3.03487293828949
C         5.34087147158927      -1.10914454778496      -1.50891009970790
C         9.09019193877363       2.01093070166083      -0.43650927585250
F         4.65724260946658       3.13896898621845       1.45034946758521
F         6.70134707690903       3.88156343315180       1.08333943978121
F         5.99091307541256      -1.61567045522813       0.65713257613610
F         7.56759840269756      -1.06183869235851      -0.76515866673600
F         7.20522953833720       3.15467803758103      -1.24237494817482
F         7.60669733846384       1.15118856968255      -2.02628937008878
F         5.89517164906669       3.85254937365000       3.63448578197414
F         7.66513814870796       2.62011381015779       3.24735347448430
F         5.73166672080279       1.67138277651934       3.67549164988381
F         4.03485837063450      -0.98202041584415      -1.10839884330719
F         5.50242456934513      -0.37431767019947      -2.62390218059248
F         5.52628581619827      -2.41573603126567      -1.83929610531865
F         9.79309849946439       2.62719122725344      -1.42791095476419
F         9.64681467042177       0.79784543073269      -0.22855030577760
F         9.22732150178694       2.74945570985927       0.68954008259432
