42
C10H22F2N2O4S2 optimized with ADF in AMS.
N        -0.92562521518494       0.50406501369852       0.26945379393836
C        -1.74208927035931       1.06541388049978      -0.88018085819765
C        -1.31284844467147      -0.95331678367582       0.48485840699188
C         0.54140670156076       0.58930398828457      -0.12084998515202
C        -3.24029285809378       0.90617979282766      -0.67900763650379
C        -2.80429139050620      -1.14450634375887       0.68675851923652
C        -3.61130916587323      -0.56160842923419      -0.46854327291012
C        -1.15524278669650       1.32001678004490       1.50788037576259
C         1.51703796637960      -0.02030770300592       0.87156731630134
C         2.96249169157818       0.27163531838523       0.45814343543031
C         3.95545333742514      -0.34679883673466       1.44011321290314
H        -1.41748345678626       0.51274560541006      -1.77686780104136
H        -1.44560476655859       2.11974639910827      -0.98983178789802
H        -0.75115276188180      -1.31788611139829       1.35238649217098
H        -0.96141457549127      -1.48009688433423      -0.41894745330532
H         0.74615131433175       1.66318749630660      -0.26276788725579
H         0.62277722081463       0.09326860135059      -1.10138596362318
H        -3.73228040057997       1.31596797319739      -1.57722103949929
H        -3.58251704979394       1.51609222174796       0.17303234761878
H        -3.10572358841527      -0.71191749311303       1.65452358723773
H        -2.96662044836923      -2.22992176784992       0.78931116571839
H        -4.68975602735072      -0.65487027777247      -0.26697140935806
H        -3.40415270571737      -1.12693114396569      -1.39730821260197
H        -2.20958326936829       1.28595406358871       1.79390547206934
H        -0.56056335771376       0.90424882870626       2.32580878421978
H        -0.85382885687863       2.35434193526464       1.29427937719208
H         1.37549420506627      -1.11113513127452       0.93086947846001
H         1.34950573650181       0.37089651612607       1.88602246927746
H         3.11737596406097       1.36491861147416       0.41099526966264
H         3.14793861949429      -0.11922531206916      -0.55898142233111
H         3.83692794517202      -1.44072809172560       1.48080742765887
H         3.79244535111027       0.04177286210550       2.45694078182418
H         4.99416217732014      -0.12731723558008       1.15122691721950
N        -2.33033207235994      -0.54204396329561       3.89085586579927
S        -2.64001425481345       0.80641964927519       4.70491908238837
S        -1.04568924478541      -1.46191100249759       4.11227053407337
F        -1.25225972798501       1.72120360508105       4.51144744455828
F        -1.09217448835301      -1.92195442263591       5.68215214770825
O        -3.63165798513221       1.53168234235788       3.92700856322401
O        -2.76031668692727       0.66557638206407       6.13849891507937
O         0.22734857603658      -0.76086276617924       3.97874161769917
O        -1.24838410200560      -2.67808888460425       3.34174281865370
