61
C19H39NO2 optimized with DFTB in AMS.
N        -0.48127107777036       1.66834204673972      -0.24653325874592
C        -1.11234144448407       2.85934176499966      -0.90832133241412
C        -0.11587830683511       2.04426784098694       1.16526929544099
C        -1.47277892157003       0.52095926070135      -0.28818649520846
C         0.76939975518345       1.36013216720990      -1.03734260216009
C        -2.34314372588692       3.36256983646327      -0.16378451235806
C        -1.27058076241605       2.63384204973255       1.96365943611425
C        -1.94950386004523       3.79668910940210       1.24661916347390
C        -0.90062909743129      -0.89192201785313      -0.34315216046477
C         1.88620517880413       0.64473718952753      -0.27095448094021
C        -2.04937977655759      -1.88510175562074      -0.12915505890096
C         2.80705413236720      -0.08331891832787      -1.25508026079333
C        -1.52106041761842      -3.32173124057962      -0.11210704272110
C         3.93523913580425      -0.79851657629319      -0.50550745278322
C        -2.64854923927613      -4.32135061628433       0.16182476886629
C         4.84582887965738      -1.56360747324058      -1.47038431842116
C        -2.12467820649195      -5.75622370384497       0.19650557302395
C         5.96772249748084      -2.28251832742737      -0.72285138622505
H        -0.35973802795167       3.65314423104439      -0.93382535862361
H        -1.35861173182361       2.57545474181839      -1.93449370853954
H         0.22870698747831       1.12864644913894       1.66759955930331
H         0.70292595790733       2.76533780628448       1.09024578058825
H        -2.07660819065396       0.59918122542726       0.61658261836944
H        -2.10915813295968       0.68364517571993      -1.16277528116476
H         0.45320555121589       0.77807171200875      -1.90614851357113
H         1.15853112670525       2.31507030956744      -1.40187792580468
H        -2.74547493476126       4.21061142944323      -0.72476550260722
H        -3.11483531758406       2.59022884712744      -0.12291929663269
H        -1.99748531985474       1.85178687315313       2.19490486926697
H        -0.85191217900694       2.97611782014166       2.91346803408241
H        -2.83911907724559       4.10555039415918       1.80044201034023
H        -1.27008254653598       4.65422631766533       1.18653367685473
H        -0.41584803185258      -1.08821171871074      -1.30424984852957
H        -0.17530054853591      -1.03640124397970       0.45674766643182
H         1.48989674028390      -0.07438657978461       0.44633520663635
H         2.46726963728767       1.38029653521935       0.29227304487932
H        -2.79893294129965      -1.77131490348013      -0.92093694822469
H        -2.52727542366976      -1.66422335142502       0.83024593836699
H         3.23087603809065       0.63229692010707      -1.96886640645221
H         2.22464318189805      -0.81751752034704      -1.82267968728425
H        -1.04903828990884      -3.55380611583949      -1.07390895836605
H        -0.75663976756460      -3.41464600365328       0.66613406916654
H         4.52582830544283      -0.06275170685597       0.05053783523011
H         3.50150417571897      -1.49488092857180       0.21915214004363
H        -3.11799908106383      -4.08316894261613       1.12190685949836
H        -3.41461073634427      -4.23182904237559      -0.61648767580557
H         4.25203761821533      -2.29654565456225      -2.02732150402685
H         5.27947694489797      -0.86544181697626      -2.19495605296313
H        -2.94248319291879      -6.44988082769870       0.39425555283393
H        -1.37565746696071      -5.86957739707043       0.98143412097232
H        -1.66811141901576      -6.02073433219262      -0.75868726381481
H         6.58367213250544      -1.56621499409136      -0.17737687806349
H         5.55423802572810      -2.99729769633741      -0.01028661125801
H         6.60219442988257      -2.82107700993512      -1.42721866735398
C        -0.58777634501577      -1.90812479023925       4.02351961171722
C        -0.53882732336529      -0.83128150495342       2.91622557307829
O        -1.62354023276436      -0.30814109781515       2.58670240541674
O         0.58835132639803      -0.59260180063423       2.42161139485781
H        -1.45122863949633      -1.74952475156210       4.66650561041391
H        -0.67652570716293      -2.88251407467379       3.54244298327491
H         0.33048488874654      -1.88693545983559       4.60715491417974
