28
C8H18ClN optimized with ADF in AMS.
N        -0.09228405482708       0.17644389064351       0.05681910235004
C        -1.04554204527719       0.66367108236443      -1.02318905775241
C        -0.78650697630141      -1.04869777128092       0.59042215456718
C        -2.43309467341008       0.46694286578737      -0.42008138062570
C        -2.27798536777029      -0.68937359754824       0.60815881291682
C         1.25650290724072      -0.11243445119856      -0.56587900696830
C         0.03390924640183       1.23494546940423       1.11842534419675
C         2.30097918138396      -0.64739645575126       0.39645346830613
C         3.57465361691472      -0.98741338933382      -0.38192576211605
H        -0.88382679322788      -0.00447823289626      -1.88309316958850
H        -0.72100499714277       1.69117136378009      -1.29411109645375
H        -0.36953493392518      -1.30957776438938       1.57114637939430
H        -0.57460940181812      -1.85922939324629      -0.12340449743165
H        -3.15978968681351       0.22577601627199      -1.20911871011218
H        -2.78502175169924       1.38632963801696       0.07059046545942
H        -2.59605225127034      -0.37160170812879       1.61241323781514
H        -2.87869435006701      -1.57097263949811       0.34041474725853
H         1.55932533708571       0.86379255383091      -1.01182789191270
H         1.05624225640878      -0.84117188130978      -1.36903680651416
H         0.50282922575278       2.11375831994892       0.61942007978038
H        -0.96893156428662       1.48247123393271       1.48627536246036
H         0.64544620761962       0.83711128868186       1.93638924516098
H         2.54184171471177       0.11655921390258       1.15279608840598
H         1.93954097308213      -1.54671650900580       0.92709489460768
H         4.35739377779339      -1.36446072404414       0.29276854668397
H         3.38083991316837      -1.76138106221725      -1.14131213444618
H         3.96250882256764      -0.09419387366031      -0.89485165992783
Cl        1.15704791060534       3.11722017274335      -1.30936557981424
