28
C8H18ClN optimized with ADF in AMS.
N         0.08541894866968       0.11613516629020      -0.08437215935964
C         1.01589290191566      -0.65529902024829      -1.02278070563417
C         1.05033772346790       0.97437687983023       0.72359310444696
C         2.38436659624412      -0.72621898646834      -0.32632572223974
C         2.23771211369859       0.06590186870997       0.98978053117344
C        -0.65231563193248      -0.82726017912132       0.83771139307221
C        -0.84616559721186       0.98626295616068      -0.90583248818127
C        -1.74259555297125      -1.64760222948518       0.17201848286051
C        -1.77208991083332       1.85006585082038      -0.07581768669324
H         1.10871125754937      -0.02338495068119      -1.92418129861611
H         0.55479362161931      -1.62685883176614      -1.24030065286427
H         0.53553591136741       1.35521235606604       1.61516576332093
H         1.35780798979737       1.77955195925219       0.01975763639569
H         3.10169906856026      -0.21033479006727      -0.98422005736209
H         2.71804920345752      -1.75967882437617      -0.15417045066968
H         2.06964380077633      -0.59829007768818       1.85349777577893
H         3.13045252373105       0.67351849687211       1.20162711659334
H         0.11307665916069      -1.48160718303140       1.27978093744539
H        -1.07305925941553      -0.20804793263459       1.64406889021306
H        -0.14879266153532       1.60445349740657      -1.51731922998665
H        -1.39742175727833       0.30635039633627      -1.57174124181846
H        -2.14240644783795      -2.35570977472951       0.91390218775190
H        -2.57712990562727      -1.02394345622619      -0.17711369893223
H        -1.36791396489942      -2.23675506122206      -0.67744977973022
H        -2.36585597692885       2.46242820576540      -0.77176464694040
H        -2.47796810176144       1.28092901793405       0.54958254727209
H        -1.20813084019802       2.54814901295578       0.56036930354514
Cl        1.96175999031578       2.23850071504597      -2.15552979464141
