53
C17H29F3N2O2 optimized with ADF in AMS.
N         2.96553565558964       0.84322117072530      -1.40024852468653
N         2.69884933182081      -1.28507334914723      -1.73110148452069
C         1.67480631527349       2.89751039643652      -0.88685058837243
C         2.98616724172452       2.13552481876468      -0.71287093725205
C         1.66301338981842      -2.99424641020503      -0.26425331530098
C         2.61965410611202      -2.72153739140066      -1.41437956079634
C         0.45939793609647       2.16594112392347      -0.32077864095973
C         0.22132900219812      -2.55825019903923      -0.53110616083637
C        -0.83603169043940       2.96179268442627      -0.46776144475451
C        -0.66691485512433      -2.62787866814060       0.70815293862894
C         2.57979441845379      -0.30602306969631      -0.82938927126685
C         3.34803304297252       0.58870725490601      -2.70353854557665
C         3.18816389021632      -0.74846744496717      -2.90698793654314
C        -2.05376900452066       2.22096082555940       0.08231214354500
C        -2.08980025210465      -2.13453100345216       0.44938673233015
C        -3.35228446998542       3.00801986794210      -0.07895060218742
C        -2.97059879734658      -2.17989177658632       1.69521520582168
H         1.79271436646786       3.87342677853239      -0.38352192773642
H         1.51474377677244       3.11130620810044      -1.95907698674033
H         2.06716720277373      -2.51848985689425       0.64710552821163
H         1.69894013105471      -4.07976300511565      -0.06777769902192
H         3.84605665515644       2.69417985362542      -1.10949174149636
H         3.20526751426595       1.91888840543755       0.34431312380337
H         3.65710229375513      -3.00085329822718      -1.15183649487680
H         2.29794393675869      -3.22949500454002      -2.33677851133096
H         0.63303146230101       1.93789474716971       0.74804938639224
H         0.33640362895982       1.19583230643174      -0.83580575913904
H        -0.20943985955032      -3.18397824473197      -1.33502969641728
H         0.20444204961495      -1.52108942897136      -0.91340959062349
H        -0.73176395630038       3.93380792948226       0.04993348996282
H        -1.00091540866114       3.19547666941198      -1.53661204711748
H        -0.21276494698735      -2.01952146383686       1.51314017674266
H        -0.69700516459819      -3.66679318583283       1.08716986080627
H         2.29628087678741      -0.42178672307964       0.20435703661902
H         3.73503031896180       1.36739814865354      -3.34758538554363
H         3.42823931260011      -1.37121098327403      -3.75895952592072
H        -2.14418837823816       1.24672655411353      -0.43164506299289
H        -1.88586543655339       1.99280339887446       1.15093109001837
H        -2.54605530744157      -2.74165750131893      -0.35405102736026
H        -2.04409492218872      -1.09794634075264       0.06823279010016
H        -3.29555836573435       3.97434649655073       0.44818548771471
H        -3.55577436034531       3.21873456554808      -1.14162095377163
H        -4.21304053116816       2.45492269032113       0.32571382314118
H        -3.98779188135336      -1.81485552288854       1.48792886689627
H        -2.54384536384782      -1.55667777512237       2.49805791793748
H        -3.05469519157476      -3.20871749930056       2.08166049751844
C         5.25126940501332      -0.83013848327405       0.09840971003084
O         4.35340220001438      -0.78751434435888       0.98305880513806
O         5.46737855575929      -1.65101042396116      -0.81872665156802
C         6.24123816123546       0.38991057379992       0.09876661243230
F         5.91770467774688       1.36159370094419       1.01076363640942
F         6.24321248080658       1.02201273179666      -1.13303922196568
F         7.52932246208195       0.02119393993813       0.35397386677557
