26
C8H10F3NO3S optimized with ForceField in AMS.
N         0.16613664435221       0.00360856897862      -0.38266280994232
C         1.61182279012176       0.00269158408994      -0.63586830544019
C        -0.49814321404864       1.19172487471844      -0.24634728309458
C        -0.50055473128590      -1.18352046394678      -0.24818501504854
C         2.37563541109885      -0.00221261068814       0.68290956582998
C        -1.86694038876348       1.21087390118950       0.03303903548577
C        -1.86948049109339      -1.20031698199538       0.03106322205085
C        -2.55398741975376       0.00589208368046       0.17391716070378
H         1.90214917602152      -0.89072553787551      -1.23206523312959
H         1.90469280209811       0.89714722090981      -1.22907377861843
H         0.03196336779531       2.13183591032551      -0.34394113081282
H         0.02754765154764      -2.12464628457902      -0.34728755302050
H         2.12026072903857       0.90128164708093       1.27660687768763
H         3.46830894248354      -0.00581261597961       0.48672842995629
H         2.11145081056434      -0.90930652438098       1.26569381017228
H        -2.38837088518203       2.15287514765326       0.14428188165548
H        -2.39306529927951      -2.14135364767755       0.14062614897383
H        -3.61358429999253       0.00688536655080       0.39576099967606
S         2.59108478546580      -3.42334597497074       4.83993272304575
O         1.90425709625019      -4.17838655436975       3.69239912746204
O         3.05422312414776      -4.55146548777957       5.77337837639031
O         1.41334239230941      -2.79964819217287       5.60308961400486
C         3.88709121787542      -2.26014981625254       4.33500938124380
F         3.34119761680077      -1.28852646215316       3.52076827994317
F         4.87273844720648      -2.93949610286782       3.64536071631028
F         4.43389729892158      -1.66500632168780       5.45514229791481
