41
C11H22F3NO3S optimized with ForceField in AMS.
N        -0.10336544290774       0.02341897886976      -0.07642650264096
C        -1.01360203351697       0.53395480049597      -1.15315917470161
C        -0.61801537652319      -1.30217841986980       0.40116304002600
C         1.24164861503359      -0.18681474088919      -0.71631649696891
C        -2.48939319606537       0.63337833636287      -0.73296399389766
C        -2.09636867696563      -1.28384913373343       0.83883933368383
C        -0.01953228123291       0.97873773309090       1.08332825241528
C        -2.99996712343221      -0.72124950481064      -0.25380564968631
C         2.37612525594679      -0.64130325548824       0.23511948666683
C         0.58544710838705       2.35938780172436       0.76867706854636
C         3.67493806527691      -0.86422919517684      -0.53672938005666
H        -0.97596800272150      -0.14459317078616      -2.03773839095222
H        -0.68224833928438       1.52320256976034      -1.53168976254952
H        -0.03079234086502      -1.66678183962837       1.27120884936669
H        -0.51711109475093      -2.07103313270516      -0.39925222268538
H         1.57347390388539       0.74052867813905      -1.23463908825144
H         1.15980626503309      -0.95023879742120      -1.52490504808813
H        -3.09292787630722       0.95101380205040      -1.61079509817975
H        -2.63578028301875       1.40539381791613       0.05020086300531
H        -2.22329167094807      -0.70124757786123       1.77230061611293
H        -2.41718914763872      -2.32372339156884       1.06618327533888
H        -1.01754440312639       1.16612478541296       1.52328768952393
H         0.56499869446725       0.53048178884291       1.91575188696225
H        -4.03288858225556      -0.60950851905344       0.14065138054410
H        -3.03270637559228      -1.43065811005768      -1.10987777481793
H         2.57734484480272       0.12667699129206       1.00901398170124
H         2.11585019396127      -1.59446267284293       0.73721879280719
H         0.61079892125448       2.95858762081371       1.70336312765324
H         1.62874541159764       2.28533065748241       0.40367667421157
H        -0.03234009199096       2.92181943557585       0.04127375268889
H         4.47684593416186      -1.17505102556856       0.16583086410841
H         3.54101927203052      -1.66346079992850      -1.29650451364707
H         3.99073188884383       0.07352750030180      -1.04162959910934
S        -2.74838550383476       0.19205967908528       5.44946670274976
O        -2.26963451589469       0.57688945574866       4.04294625721492
O        -3.40087129637466      -1.18155920054985       5.23345373642180
O        -3.95133199095106       1.12052417746798       5.67167118242640
C        -1.47131496613628       0.25465468204775       6.73743694809708
F        -0.94004738352015       1.52912568395026       6.79634869892146
F        -0.46911696510008      -0.64833309179616       6.43681051322254
F        -2.03147161742693      -0.06809912019520       7.95885804301600
