49
C15H31NO2 optimized with ForceField in AMS.
N        -0.70374746425708       0.53593504439083      -0.21137977010049
C        -1.68468724727066       0.28670849631572      -1.31784468355826
C        -1.23951329959229       1.62762309179880       0.66671786015845
C         0.56193980493319       1.02303990684830      -0.86187675956098
C        -0.46348762746080      -0.70024489935528       0.61354911590357
C        -3.10795626185377      -0.03992695353069      -0.83473248470304
C        -2.66301796643953       1.36427776971102       1.19865241152194
C        -3.63737230067168       1.07602387215769       0.06044017168919
C         1.76241268580153       1.25682007228456       0.08917714597493
C         0.19224895361335      -1.88907919775861      -0.13150128009321
C         2.97668313194185       1.77969208055847      -0.68914292446243
C         0.41278877810404      -3.06962818946271       0.82269155515944
C         4.19899500343461       1.90913121639589       0.21530107736078
C         1.06331157543763      -4.24836093347096       0.10364488649001
H        -1.34142802948551      -0.52358892937753      -1.99385430223338
H        -1.76527240761294       1.19068202453134      -1.96650506808283
H        -1.26486111663206       2.59536639861119       0.11397983011076
H        -0.58799557099642       1.78314514905379       1.55315561639961
H         0.36818030055738       1.98263052066311      -1.39565825078381
H         0.88354783679508       0.31705990348583      -1.65991031207708
H        -1.40957414541674      -1.07717648298068       1.04736866241312
H         0.16161398783996      -0.45291958641213       1.49950350474147
H        -3.14144339154871      -1.01444411047394      -0.30569248447207
H        -3.77503708507234      -0.13420700659227      -1.71877565812882
H        -3.01347018955355       2.26469386641891       1.74823084957048
H        -2.66658480038923       0.52688300725792       1.92702133078495
H        -3.78446762582770       1.99848380114970      -0.54370272657686
H        -4.62250809357518       0.77960920954291       0.48042214042899
H         2.05631602816362       0.31053425458535       0.58706306381315
H         1.50444141653398       2.00454276869707       0.86658459498384
H         1.17719618504689      -1.59947432463689      -0.54989459900601
H        -0.46098293501312      -2.23448549331639      -0.95804082520291
H         2.74054696726085       2.77613972947996      -1.12230651470801
H         3.22256984323304       1.08363429862809      -1.52062571049700
H        -0.56235039317235      -3.40003429839361       1.24267528540592
H         1.07001725965081      -2.75615686599617       1.66309650081647
H         4.51249821914855       0.90903872389518       0.58320429229467
H         3.96926965606466       2.55932446449414       1.08396061702933
H         5.03930478466604       2.35881278481625      -0.35413780570987
H         2.05826951673786      -3.95555130238103      -0.29428170487950
H         0.41990273891470      -4.59232964051266      -0.73401315423493
H         1.19889544682232      -5.08943619416980       0.81556093150013
C         5.83592063334715       5.48719265525484       3.22837380083489
C         4.72375893018995       5.23541247008450       2.26015573444167
O         3.68169493583433       4.73237968063321       2.64762412487370
O         4.85235670769819       5.53205015978949       1.08326765479829
H         5.48292596313480       6.16811333217312       4.03092502043220
H         6.16148879197735       4.52716455881988       3.68100032862836
H         6.70348564285794       5.95547600389425       2.71632429101118
