55
C15H32F6NP optimized with DFTB in AMS.
N        -0.68706499018478       0.19391962526897      -0.34470338199373
C        -1.01305824261176       1.50512377335547       0.30657328694678
C        -1.56336279967320       0.01532119755553      -1.55041747532034
C         0.73224925094494       0.26007100914922      -0.86671659032713
C        -0.86594664424820      -0.91861110845873       0.65547969960286
C        -2.49026872715587       1.66080225214260       0.65546660983230
C        -3.04519702607968       0.09816537981849      -1.21681844882140
C        -3.37420061064318       1.44346332036352      -0.57198889464444
C         1.83123551829551       0.21070772765948       0.18818503111803
C        -0.68716611373781      -2.32175129178014       0.08372565604111
C         3.17282222372907       0.49756012927272      -0.50015010389735
C        -0.56810992171413      -3.34589034545304       1.21625229338291
C         4.33926400550253       0.32445254590601       0.47599324733839
C        -0.41520766545577      -4.75535676824476       0.63273082974621
C         5.67621543905479       0.57834101425768      -0.21795814410484
C        -0.17628636812348      -5.79001871528548       1.72978124937568
H        -0.71874427943460       2.29036385544988      -0.39520515464984
H        -0.39979479147558       1.58977874514713       1.20601515328665
H        -1.31141654660596      -0.94391821316849      -2.00413074113014
H        -1.29460754801870       0.80982514620696      -2.25195974583295
H         0.80177318876788       1.18865824786332      -1.43936069544260
H         0.86005413108500      -0.57320261379327      -1.55434156181951
H        -1.86645865343987      -0.82056161816938       1.08077097451683
H        -0.14458577759433      -0.73552160257142       1.45470672533766
H        -2.62838440125368       2.67562028334185       1.03816651020912
H        -2.77540441002754       0.96791789198784       1.45142751789833
H        -3.34104376795928      -0.72169984501175      -0.55728138772991
H        -3.60028655748795      -0.01106808057790      -2.15191377772507
H        -3.20212734535729       2.24763754845492      -1.29473298517575
H        -4.42564817522338       1.47009331383568      -0.27685427805854
H         1.65837270805452       0.94375883137401       0.98273603414190
H         1.87453689121881      -0.78541537149632       0.63520934977815
H        -1.53823422256802      -2.57983208479681      -0.55135461634131
H         0.21527052919632      -2.37365447935451      -0.51992171333768
H         3.16832820202945       1.51880528191328      -0.89654923247066
H         3.29593381925792      -0.19008710180358      -1.34108161261376
H         0.30609848130463      -3.10499645206488       1.83105922617680
H        -1.45451201034768      -3.30177822001736       1.85966820206326
H         4.32644808531333      -0.69427474975613       0.87707568205494
H         4.22309025282011       1.01797555670790       1.31687282949833
H         0.42082021011512      -4.76706977573331      -0.07332642664568
H        -1.32247095016179      -5.01422154301725       0.07668102077934
H         6.49523972746655       0.44756152553162       0.48960542744247
H         5.81320620350957      -0.12108772600725      -1.04304547922793
H         5.71600360692049       1.59453576682538      -0.61310908264266
H        -0.09583458450373      -6.78413327954666       1.29002202258762
H         0.74780421020842      -5.57225622868912       2.26707988792086
H        -1.00136025213801      -5.79151499436620       2.44442627642651
P         1.80531881515072      -2.66769486022730      -3.00636765061202
F         0.20733369077778      -2.14567196315479      -2.76297802160040
F         1.33366818704563      -4.18688215635722      -2.62798536025687
F         1.47326466382059      -2.89885542581164      -4.58000339666150
F         3.35021904254924      -3.13177644378932      -3.19912284601480
F         2.21239160167711      -1.08372913504139      -3.29902251370690
F         2.09565634940926      -2.37852014524403      -1.37343872129738
