46
C14H26F3NO2 optimized with ADF in AMS.
N        -0.40302620085579       0.63920330351554       0.71332191049037
C        -1.53198045096031       0.24835585696260      -0.22558374356912
C        -1.00910781398194       0.97076049851943       2.07596760197531
C         0.61835702858353      -0.45853846193292       0.87787945629004
C         0.21517026186448       1.89792206645818       0.11494556103204
C        -2.37305786741671      -0.90297220621334       0.29383674045187
C        -1.87523461989447      -0.15091174581390       2.62780724561812
C        -2.97950451581180      -0.54984907860547       1.65094026818297
C         1.34895226906604      -0.88390982875292      -0.38320582832237
C         1.40028240616310       2.47665959023995       0.86323467100255
C         2.33035235122498      -2.01353226317170      -0.05979367980149
C         1.75277364163764       3.82493689755480       0.22934278332874
C         3.10976364725732      -2.47298962376672      -1.28799989518898
H        -1.07751498150905       0.03097362168344      -1.20181423877213
H        -2.14408031111930       1.15679735530533      -0.32659972369805
H        -1.57668497889509       1.90959028194297       1.91704508612039
H        -0.16699002072013       1.18793421173772       2.74652049197945
H         0.09831209384959      -1.31845308138022       1.31849195355533
H         1.33361599262352      -0.08696303369020       1.62749856741306
H        -0.60295804494186       2.64179364987490       0.12940749088790
H         0.48183458663195       1.64268580731782      -0.92217744626213
H        -1.77994590056414      -1.83251428849972       0.35699188801493
H        -3.16352242048165      -1.08888019370977      -0.45206271888727
H        -2.31145104040079       0.22802468120660       3.56722542170079
H        -1.27024821868137      -1.03283811211531       2.90363386404248
H        -3.67186693265360       0.29934788682872       1.52089385623470
H        -3.55997925361852      -1.39744230254474       2.04769649368185
H         1.90374231823606      -0.03629969118275      -0.81821067391260
H         0.63786159202283      -1.23842429510926      -1.14875769663673
H         1.12664095154049       2.65527741483775       1.91496665801414
H         2.27565298361530       1.80424688277225       0.83883667508430
H         1.77525992900131      -2.86674110500905       0.37033918314292
H         3.03380041612126      -1.67276856888629       0.72143026932809
H         2.61942141479637       4.27664380522735       0.73300676194709
H         1.99945709386374       3.71173276576218      -0.83829516076898
H         0.89698922306314       4.51072115563198       0.32292007471582
H         3.70009154986812      -1.64579232883930      -1.71256282398748
H         2.42993764826694      -2.83967471667852      -2.07345058900459
H         3.80333693854974      -3.28803135627937      -1.03418152610634
C        -2.61603307298603       4.51076893248863       0.93401435541576
O        -1.66133084054164       3.76295222517393       1.31429390907208
O        -2.85678295231232       5.70448602023109       1.13349509628537
C        -3.65015718380547       3.73711748635964       0.03730735197982
F        -4.69945083006112       4.47770405482969      -0.38615292367019
F        -4.18336014436128       2.63516974267863       0.69231403991870
F        -3.04393086777308       3.22152423734036      -1.10341246271852
