28
C6H14F6NP optimized with DFTB in AMS.
N         0.30968214225157      -0.45312016934396       0.29203504702844
C        -0.01192539531159       0.78107529787083      -0.50227823283509
C        -1.00517313949562      -1.15927833015418       0.54741987986169
C        -1.46720361640189       1.08556428494387      -0.18215362271106
C        -2.08706922544896      -0.30825081202157      -0.10492517672075
C         0.93772521956752      -0.07833574048048       1.58809164985882
C         1.25107788936981      -1.32255180082312      -0.46432426387974
H         0.10593688408375       0.54160994911271      -1.56150252121480
H         0.68135292049684       1.57816134907531      -0.23328206960352
H        -1.14491417216041      -1.23375027659033       1.62499420042057
H        -0.95107759124003      -2.16626912875788       0.13785053816606
H        -1.92113942700801       1.70322627800603      -0.95727011435860
H        -1.55154630214982       1.60196280384623       0.77742108314975
H        -3.00425446531191      -0.31990343341864       0.48420007686515
H        -2.31085982385629      -0.67570274408799      -1.10966761116115
H         1.89040037792398       0.41130678595584       1.39245499954871
H         0.27256586166367       0.59651136129818       2.12272450816847
H         1.09909094852995      -0.98591281112879       2.16720583315780
H         0.76458842558679      -1.65895091369622      -1.37713560084916
H         2.14434556008437      -0.74714014991428      -0.70159146232461
H         1.50588319154758      -2.17991785308206       0.15420415531695
P         0.37173232150915      -4.35770599827816       1.88784874201442
F        -0.61654663542509      -5.62627952174668       1.67482632750548
F         1.68468216178049      -5.22898213947827       1.48014158125223
F         0.17459503207533      -3.92609881648563       0.26994253967640
F         1.35834436246119      -2.98772685024639       2.05841287505139
F        -0.93273792205618      -3.37945554901146       2.24963856462528
F         0.57250517423381      -4.68817781846287       3.46567980439087
