46
C12H28BF4N optimized with ADF in AMS.
N         0.22658971041440       0.01644562761399       0.00869490756553
C        -0.66511996884507       0.59397729665951       1.08665932540755
C        -0.59744414431027      -0.58373797135767      -1.11042063077543
C         1.11952010985021      -1.06621640138970       0.63381937240221
C         1.12253499188558       1.12004791748481      -0.57304447706926
C        -1.76443013298696      -0.31674033710234       1.61530959256281
C        -1.68141657820223       0.30457775467302      -1.70474221493466
C         1.75172253288686      -2.04903380803522      -0.33834205688389
C         1.69080929884145       2.10814125912772       0.43272283319863
C        -2.51174738686536       0.39459133754271       2.74433455256971
C        -2.39814052319702      -0.45308964895574      -2.82353055830881
C         2.69492337656704      -2.96949106259980       0.43990868850660
C         2.65029384067609       3.05274883271961      -0.29571508645064
H        -1.09998507175104       1.51738770763275       0.67427975429542
H         0.00879390773895       0.88208397403223       1.90580456386324
H        -1.03944797736778      -1.51000308662386      -0.71230921526401
H         0.12344662752316      -0.86719958742128      -1.89007297438784
H         0.49211144656281      -1.60043687960628       1.36016585037415
H         1.91895137350085      -0.52367177829191       1.15994081345609
H         0.51128503829929       1.64998044797543      -1.31593897782134
H         1.95279018679243       0.60191376525268      -1.07908077893213
H        -2.47634984720839      -0.58432058807854       0.81885339407386
H        -1.34345331058568      -1.25889350258410       2.00051393614070
H        -2.41555554530518       0.60496304391060      -0.94079088265697
H        -1.24825158280738       1.22950714382992      -2.11699242638784
H         0.98389488188515      -2.65351421000665      -0.84829910479289
H         2.34859952048393      -1.50802680870362      -1.08953968422589
H         0.88947205853544       2.69333882102065       0.91308773039123
H         2.26495083402442       1.57407101327667       1.20556133768466
H        -3.31689767714110      -0.24300323763911       3.13507474952678
H        -1.83408545906341       0.63455775255845       3.57844354583570
H        -2.96420141817082       1.33598150711839       2.39436866643342
H        -3.18315616269969       0.17239335477405      -3.27054723012377
H        -1.69626691894016      -0.73819694918478      -3.62268570569727
H        -2.87136804943719      -1.37293733955952      -2.44469097332034
H         3.13869550924777      -3.70829892331095      -0.24134187245658
H         3.51668650494543      -2.38596991396009       0.87870198290898
H         2.16146409432208      -3.51255935471808       1.23830181416581
H         3.03197123821977       3.80833253053461       0.40507576016020
H         3.51048642762638       2.49609839510515      -0.69367247945113
H         2.14486517529849       3.57789361595535      -1.12349288827655
B         4.80052021684981       0.02758493160232      -0.24466335462407
F         5.54480202039099      -1.16302080012184      -0.22180074039172
F         3.98685587373542       0.10094141605059       0.95220244549104
F         3.89660216886353       0.00436318045294      -1.38092409590972
F         5.60538408621700       1.17536692394691      -0.32982883427157
