61
C17H24F18NP optimized with ADF in AMS.
N        -2.51387973075937       0.23415980842023      -0.30647926738002
C        -3.58784312873342      -0.07324892742488      -1.34524541019189
C        -3.21316559556509       1.21303481635284       0.61754907550681
C        -2.15254494667522      -1.02580398265162       0.47901363183716
C        -4.93131362493814       0.00998390096535      -0.60699848010293
C        -4.62639981818314       0.66758557528551       0.75927486194087
C        -1.30631290371097       0.85252108139429      -0.96675823310542
C        -1.28505633937057      -2.03086583422749      -0.25452575925657
C        -0.19903019044042       1.23586368935449      -0.00478219518769
C        -1.06567530777958      -3.25366894965976       0.64346508535617
C        -0.18864139917188      -4.31134884294375      -0.02534598063793
C         0.01476009399428      -5.53261656275135       0.86691708901407
H        -3.49408607290119       0.70078990707067      -2.12041562956370
H        -3.38277628957116      -1.05476683861864      -1.78667547400997
H        -2.65189547128884       1.29140775118810       1.55638637604842
H        -3.20519242682990       2.18491120446155       0.09920544953148
H        -1.65669964348617      -0.67744620002600       1.39743711480849
H        -3.10545518817528      -1.49013174401195       0.76083485719424
H        -5.63626612842786       0.61286246632007      -1.19696197733476
H        -5.37597665620608      -0.98314259423040      -0.47416932760348
H        -4.68442245903308      -0.07242376570152       1.56969813925086
H        -5.32832010676374       1.47692813651764       1.00443542116333
H        -1.68191394280525       1.73682564191883      -1.50388151459657
H        -0.95790244407551       0.12574963660968      -1.71436279240213
H        -0.30516057497103      -1.59715210191033      -0.51659544248131
H        -1.77095185699695      -2.36243247877390      -1.18626775347628
H        -0.53166847295592       1.97552126551618       0.73763264535665
H         0.21841644691892       0.36567467177696       0.51959306959660
H         0.61555971836423       1.69456337451708      -0.58431081607203
H        -2.04123784094294      -3.70131165452311       0.89413733496603
H        -0.59832190267072      -2.93304161211722       1.59421969096128
H        -0.67009253163040      -4.62342925416787      -0.96725310812177
H         0.78845353955986      -3.86743783207196      -0.29275390253974
H         0.61929796946092      -6.29949794031640       0.36038525137669
H         0.52841338829445      -5.25928126990881       1.80289319237273
H        -0.95487608197625      -5.98347032430553       1.12541882978418
P        -5.25648781318529      -5.43117422580391       0.04651277962396
F        -5.88126072280451      -6.36837812136737       1.26220081587586
F        -3.97209927990159      -4.98321546237036       1.03489871455223
F        -6.50242807781755      -5.78856108077001      -0.99508406026814
C        -4.27210218364277      -7.02007447886142      -0.59472699884769
C        -6.40007474096586      -3.98514373081875       0.81859467553320
C        -4.39870832475274      -4.24381034604336      -1.34580858636063
C        -4.75049038233938      -8.42579288812056      -0.10537938927387
C        -5.96121895397855      -3.30185931060622       2.14808981318208
C        -5.06126540428150      -3.92128956187456      -2.71933167306293
F        -2.93402218591442      -6.97750272835101      -0.25317930210547
F        -4.33597548554158      -7.08264358252060      -1.97198305120259
F        -7.63639607808796      -4.51748229141140       1.09258060196534
F        -6.64309706812017      -2.92599868234073      -0.04941813280573
F        -3.14008922945942      -4.70595135044923      -1.67476261705091
F        -4.16873278146565      -2.99308443286011      -0.76300719553665
F        -4.07010929118244      -9.38738637029184      -0.80046918130062
F        -6.06806669484309      -8.62062857259008      -0.32468332828466
F        -4.48118191940982      -8.61974287711525       1.20600427189642
F        -6.91888271967945      -2.40935818970810       2.54456185289509
F        -5.77453698753954      -4.17880001401808       3.14749612234259
F        -4.80772413228193      -2.57398248215027       1.99577619503443
F        -4.27081042553998      -2.99568767923011      -3.37952413613216
F        -6.28577410524932      -3.36970429642523      -2.60177444232789
F        -5.14552556407206      -5.00672763612842      -3.50538609614311
