28
C6H14F6NP optimized with ForceField in AMS.
N         0.56836916198692      -0.00240269140090       0.01109698592941
C        -0.31924255237417       1.07160077529875      -0.51219582642501
C        -0.32494415967745      -1.06840185028125       0.53942479351551
C        -1.73940652631280       0.74956788992283      -0.08192639860014
C        -1.74067381020243      -0.74689023479248       0.09477376267257
C         1.43880178209321       0.52415086980975       1.08883237645780
C         1.42235268245185      -0.53671305021453      -1.07441242171629
H        -0.30375452045362       1.12109423761870      -1.62648023816147
H        -0.03357799888057       2.08710759107101      -0.15219429214647
H        -0.31725800484419      -1.10456473656853       1.65402015646453
H        -0.03919144856003      -2.08839076620103       0.19197846645859
H        -2.48701502386692       1.07284417683056      -0.83930355307641
H        -1.95856235238945       1.24275049887368       0.89082248249400
H        -2.49598939955005      -1.06983558092665       0.84450476585189
H        -1.95023286312754      -1.24012781913132      -0.88016571995270
H         2.12698046035163       1.30724658134643       0.69790491466491
H         0.83015627097310       0.97915161955384       1.90274982443556
H         2.05574614410696      -0.28930181406861       1.53238238165832
H         0.80271612067581      -0.98826555433197      -1.88192003215163
H         2.03521939452387       0.27448779976566      -1.52392467573094
H         2.11106316021912      -1.32266166367365      -0.69068970545901
P         4.72589589810198      -0.20147611520734      -3.43302572189255
F         4.64852846895004      -0.63548039641050      -1.77311102862645
F         3.89717311707760       1.26831885630065      -3.11256057712208
F         6.22464029527416       0.58531699669149      -3.14443661744071
F         4.83013720945658       0.22959933929355      -5.09194262789418
F         5.56764696261701      -1.65756224670411      -3.77950253824390
F         3.23154083587935      -0.99607822046402      -3.72524480436313
