26
C8H10F3NO3S optimized with ADF in AMS.
N         0.81246703395830       0.20598378825743      -0.16483486844075
C         2.12134543537826       0.85596227028497       0.13437911136594
C        -0.23460623555342       0.98391256320715      -0.53259668855779
C         0.71875434586198      -1.13998997805615      -0.20102334938968
C         2.86121027443143       0.21495390041950       1.29234606790763
C        -1.43727878781780       0.42459213606502      -0.90023266432448
C        -0.48824322999322      -1.74547514460088      -0.52799601721469
C        -1.57515245229713      -0.96692007391008      -0.88534548746289
H         2.71609706602144       0.79597855149080      -0.79653961396681
H         1.88480700574110       1.90783757168750       0.34850868661071
H        -0.05775773714768       2.05710381745926      -0.52091561049230
H         1.62119792297869      -1.70468718611542       0.03358628415185
H         2.21935788782905       0.12466751944737       2.18222704303402
H         3.71231296075857       0.86501713544490       1.54296548976217
H         3.27500988990316      -0.76320690498418       1.00955755877208
H        -2.25868122922257       1.07673349142756      -1.19559506641064
H        -0.53237709128969      -2.83388177576763      -0.53890318027797
H        -2.52246428978882      -1.42882013711418      -1.16750809716336
S         3.22588229808820      -1.49247440747925      -2.21962864640947
O         1.77993563595724      -1.38338739191519      -2.54274672863514
O         3.49031137928348      -2.22137503349777      -0.95761402568024
O         3.99248815470252      -0.24935174619944      -2.40036064568980
C         3.89813954796958      -2.63372476796558      -3.54813948221215
F         3.66149242191234      -2.12541506080468      -4.78401144549640
F         3.31219533943541      -3.85864141151468      -3.47602820676015
F         5.23696875289957      -2.79816842326632      -3.40553258971970
