58
C18H37NO2 optimized with ForceField in AMS.
N        -0.01354845305760       1.98945005027593      -0.00351543427273
C        -0.69934797216875       2.89325639502991      -0.97846059235448
C         0.65619184930600       2.90649786522669       0.97003326893216
C        -1.02371120348102       1.14796082945271       0.71837158683858
C         1.01103990434657       1.16433181810959      -0.72396928400098
C        -0.22292958478613       4.31161977969518      -0.73027929476528
C         0.14692419920265       4.31400157477068       0.72624300262934
C        -1.76413957231169       0.12404144054641      -0.17666923924731
C         1.77046167793228       0.15641845655321       0.17317781905935
C        -2.87351180133741      -0.58454911177811       0.60992031545005
C         2.88809614285081      -0.53883833071774      -0.61379217869288
C        -3.61934127244743      -1.59605863105043      -0.26958131081700
C         3.65060908552827      -1.53580685696247       0.26803226965981
C        -4.68974831050738      -2.33882376047725       0.53824443630451
C         4.72163629465921      -2.27505761801999      -0.54195500351066
C        -5.44404221604820      -3.34141082561904      -0.33037521612954
C         5.49578419897241      -3.25924038477673       0.33004976038313
H        -0.51756934957326       2.61525707936275      -2.04208445957163
H        -1.80578122348825       2.89789261691574      -0.84405579987878
H         0.48559314784915       2.62258454581591       2.03394432342030
H         1.76159571829989       2.93611830276693       0.83028932628546
H        -0.54539771448497       0.59636519833376       1.55761912745469
H        -1.78191111445270       1.80899080511176       1.19994831700171
H         0.54185160059579       0.60208212220504      -1.56129581615788
H         1.75704706251561       1.83744918794255      -1.20780159044067
H         0.67685119812549       4.52242467519498      -1.35000254831510
H        -1.01450797031101       5.06072368524194      -0.95139154977983
H        -0.75747737633576       4.50197970260248       1.34659471044330
H         0.92091759258080       5.08064989718812       0.94944077185680
H        -2.21127088142446       0.62852597176002      -1.05856002092617
H        -1.05539054729462      -0.64844551775870      -0.54068410633235
H         2.21255414432679       0.67222198542892       1.05111311186288
H         1.07517572241998      -0.62530344396980       0.54325306251617
H        -2.42293534402288      -1.11367956923119       1.47858381226983
H        -3.59604718724171       0.16975085156573       0.99194952851944
H         3.59875379738328       0.22436490717480      -1.00042242503956
H         2.44328026062567      -1.07774265697302      -1.47946660595293
H        -4.10136178016712      -1.06020669217958      -1.11697715347310
H        -2.89508371668776      -2.33217459331989      -0.68338038336097
H         4.13351558856359      -0.98811719763920       1.10734589027996
H         2.93711808396761      -2.27579462876169       0.69346573850617
H        -5.41631905460994      -1.60952632560257       0.95823153806676
H        -4.21110682117569      -2.88390741008115       1.38093299140475
H         4.24028127772522      -2.83580988607205      -1.37224041454335
H         5.43534031542320      -1.54251023364587      -0.97803894465970
H        -5.96057641275164      -2.81901182954653      -1.16352710153405
H        -6.20477214196066      -3.86645424980802       0.28489771680910
H        -4.74337268386711      -4.09565226499502      -0.74759914640264
H         4.80837636255913      -4.01943831635689       0.75840018243810
H         6.25950470693607      -3.77896455830596      -0.28601786422984
H         6.01051510743852      -2.72265765057384       1.15528045361578
C         4.52478462157735      -3.29044012938510      -4.91375646413293
C         3.24839926686560      -3.46261165980596      -5.67530821567020
O         2.55222816911417      -2.49217080256357      -5.92469463122797
O         2.89964040434167      -4.57042797830942      -6.05030717735086
H         5.21360951046321      -2.63384357089218      -5.48550407748430
H         4.31098895985003      -2.82535878172680      -3.92889912246501
H         5.01841687854912      -4.27205564446595      -4.74853087108744
