51
C13H24F6N2O4S2 optimized with ADF in AMS.
N         0.68277432362485       0.64789249368747      -0.49623525125626
C         0.82972083166281       0.23005267228665      -1.95060941412625
C        -0.81700159916936       0.77256590035480      -0.34910019083246
C         1.22838906915023      -0.39907165942770       0.44532366746762
C        -0.20262645186544       1.07183449309863      -2.69749951794167
C        -1.29434324885168       1.41877293651237      -1.65013914885751
C         1.36507855557710       1.99473165958460      -0.30319477747192
C         2.72618542209584      -0.60739910241256       0.33818222729414
C         1.36731624801215       2.51413038891420       1.12264768437112
C         3.17627074249309      -1.76701890390253       1.22966657990277
C         1.97714400825793       3.91731596071995       1.14995534554545
C         4.67103394367297      -2.03951018979096       1.07740434555268
H         1.86500018482862       0.39210229104433      -2.27524332552627
H         0.58765405038615      -0.84344076445305      -1.98307354150154
H        -1.19977532334818      -0.25396932601498      -0.24323613335068
H        -1.04991544312264       1.33420031835576       0.56379700519149
H         0.69009014299054      -1.32898818764127       0.19742728548225
H         0.92836995609222      -0.09698124790023       1.46119849075386
H         0.26544273882224       1.98000937304051      -3.10158257186431
H        -0.60463590206012       0.50577940410640      -3.54904826883507
H        -2.28265432664273       1.02361061980264      -1.92534527151678
H        -1.40027507809796       2.50695125054208      -1.53521245839373
H         2.38247073434781       1.87674736745823      -0.70026718611660
H         0.85804003539883       2.69970035138682      -0.97537132769502
H         3.01237818923231      -0.81806727363247      -0.70487061222076
H         3.26774062495785       0.30604088066568       0.63220128873518
H         0.34450683980571       2.55089212258086       1.53820756083481
H         1.95920322163408       1.84833533750486       1.77266385190559
H         2.93647942825553      -1.54286312451479       2.28566887414344
H         2.60480743787929      -2.67501290306360       0.96293594955604
H         2.98962173758475       3.91306668241329       0.72124847673182
H         1.37807237795292       4.62064273972153       0.55217177908466
H         2.03048533222831       4.29478054083486       2.18112549848872
H         4.98937148383879      -2.88210856040345       1.70935392078683
H         4.91664533789365      -2.27759272740086       0.03107918628680
H         5.26297182353593      -1.15588723183757       1.36036939622015
N         3.73084078771556       1.74258357870805      -2.54145334026337
S         4.74115573837944       0.57165589273954      -3.01481679503848
S         3.92481100815326       3.30713283843214      -2.91892178760798
C         6.16280071667453       0.60508720545946      -1.76052967125618
C         3.21850443064394       3.46798388133874      -4.66968876686138
O         4.04768526929939      -0.68200304616829      -2.70197553982353
O         5.39173532153286       0.74662879213112      -4.30280337255421
O         5.29795284545898       3.77470646463718      -3.02342944090187
O         2.94758585812231       4.03192983040001      -2.10599462309059
F         6.74439810341201      -0.62004708055530      -1.72484243906977
F         5.70446666254031       0.89079665728535      -0.50891226142906
F         7.09388409894713       1.51542852182679      -2.09327911528121
F         2.97285962721427       4.77639877622084      -4.92452980933256
F         2.03773796112638       2.78990261693594      -4.77331135774059
F         4.06308821922526       2.99743615048789      -5.60224010167782
