48
C12H26F2N2O4S2 optimized with ForceField in AMS.
N        -1.63222411591388      -0.29887257504283      -0.17590861696184
C        -1.91067441820274       1.11823932296696       0.21176800128143
C        -2.64515047787538      -1.21423329343788       0.44112625281479
C        -0.29479628181686      -0.71932006203623       0.36108456566342
C        -3.35500943993340       1.56230563087628      -0.07812169260635
C        -4.10943787007924      -0.80721721017705       0.18714106684875
C        -4.35333782079520       0.63737694286069       0.60705175813164
C        -1.64367258646210      -0.45578171121618      -1.65634570693785
C         0.92633703338803       0.05852610168820      -0.18973178355621
C         2.22803996542886      -0.46041981272257       0.43647898306607
C         3.44727294554189       0.27029622601099      -0.14006190573349
C         4.74977599596507      -0.26894363248606       0.46173840737019
C         5.96388530291151       0.43942518600684      -0.13204430676754
H        -1.24176325954333       1.81854347621159      -0.33306427632855
H        -1.71952408088351       1.26486764388721       1.29981391033764
H        -2.50865013623956      -1.25090186037258       1.54723819739523
H        -2.50580587661040      -2.25593645348623       0.07149667605064
H        -0.28308424810785      -0.61797057772996       1.47130713137904
H        -0.12771316084881      -1.80105076467259       0.14761669209522
H        -3.50122540655760       2.59590366768402       0.30344924690822
H        -3.54474865666812       1.58565143807191      -1.17233079342991
H        -4.38814767969644      -0.94988679248322      -0.87722722175386
H        -4.77554722702375      -1.46917158766620       0.78183389646563
H        -4.25126141494878       0.72865495486573       1.71113139538162
H        -5.38744951854012       0.93554171721962       0.32976720208036
H        -1.01622231785723       0.31438965541343      -2.15318673004172
H        -1.27214815888518      -1.46114880134813      -1.95544811707669
H        -2.65677308836836      -0.33906211513085      -2.08660261387151
H         1.00077981509830      -0.07018298308632      -1.28910130861424
H         0.83756880247459       1.13910543851505       0.04440420050817
H         2.19471576795885      -0.30797152525266       1.53794075449512
H         2.32546053878949      -1.54989698832171       0.23372010040596
H         3.36250910139546       1.35772416467507       0.07870762451503
H         3.46963168859459       0.13239219272906      -1.24376908468894
H         4.83536293095656      -1.35851367156243       0.25691642233763
H         4.74630478021390      -0.11672405240693       1.56320223295349
H         5.99356512452777       0.29799259324076      -1.23344451102163
H         5.92804377040567       1.52541482161834       0.09856036045340
H         6.89128058213095       0.01373405535814       0.30291783410594
N        10.98021533290130      -0.85501915039898       0.32408014408501
S        10.27965725350673       0.08518686183423       1.46607148707631
S        11.00557435372902      -2.48557681682456       0.46232750927544
F        11.31338898755545       0.22394896024831       2.77555289638672
F         9.48495409694049      -3.09200183177317       0.11145136554840
O        10.01125610740646       1.44974567146700       0.89880657967906
O         8.99148891952314      -0.53605448981797       1.92738905303222
O        11.37522192448611      -2.87693120220789       1.86550601152040
O        12.00409918872767      -3.05728813618828      -0.50301142335783
