46
C14H12F18NP optimized with ForceField in AMS.
N        -0.46515585754727      -0.06038559874064      -0.49941700527106
C         0.97605564829387      -0.06415581303843      -0.78202159152775
C         1.77296098854179       0.16721743805685       0.50619136523458
C         3.27455492872039       0.15707328913078       0.23681486253760
C        -1.11243728329549       1.12957369582125      -0.30413927499305
C        -1.15152655987467      -1.24203455474412      -0.42673414543066
C        -2.48069477110659       1.15563914303453      -0.02367366649217
C        -2.52028947138221      -1.25141136310743      -0.14747099268836
C        -3.18607256788959      -0.04383438677966       0.05571673430373
H         1.28478095212337      -1.03606653005546      -1.22706926501788
H         1.21438057650488       0.72517222616644      -1.52960201620869
H         1.53066810525323      -0.63433426828847       1.23756718648953
H         1.49330536030650       1.14564269174807       0.95292314182552
H         3.58253263993764      -0.81692605768394      -0.19984484922084
H         3.82394042858001       0.30793105588022       1.18991142258807
H         3.54525161747334       0.97567020560537      -0.46357955084402
H        -0.57082934410421       2.06634433559628      -0.36324474691017
H        -0.64229978094198      -2.18692405376584      -0.57452632360920
H        -2.98833490080439       2.09868416897185       0.13286286768946
H        -3.05843698656497      -2.18836038845708      -0.08512285947453
H        -4.24570390419201      -0.03770989238642       0.27619147931066
P        -0.43947281108477      -0.05751076664006      -6.54365835338222
F        -1.95596035376772       0.75055028562887      -6.40454718202242
F        -0.80248040428572      -1.61903120050536      -7.17462882846092
F        -0.22886241047536       1.57917087962295      -6.05661533602187
C        -0.75647983044263       0.26088675057224      -8.42300041931332
C        -1.23395361506045      -0.85590720501014      -4.96637743550884
C         1.43388154212791      -0.17977154037624      -6.14738144144283
C        -0.68291881700247       1.73250927684087      -8.88749394314790
C        -0.52203708914859      -2.08811611727463      -4.34601657231188
C         2.40440763407954       0.67017905838242      -6.98616291963099
F        -2.03130177207161      -0.18644797055725      -8.75191552283035
F         0.13504543584119      -0.47803091999677      -9.18369913031763
F        -2.53194679663912      -1.26610564782949      -5.25549219604546
F        -1.31094857211378       0.11259877490966      -3.97748045997319
F         1.81684363761172      -1.50235226631245      -6.28327682357355
F         1.63392608444495       0.19970912697792      -4.83146201832253
F        -0.99362744777735       1.79040109587692     -10.23479507541568
F         0.57767546025527       2.26022908895281      -8.72576320530699
F        -1.59140824139418       2.52145418142331      -8.20654667864682
F        -1.35467420177071      -2.64286102572590      -3.38980402579901
F        -0.25117268164946      -3.06685115056816      -5.28301605611963
F         0.64955519030076      -1.73843059049723      -3.70923908353107
F         2.31963220231720       0.36816450526377      -8.32844432986430
F         3.69785794660875       0.39351867167234      -6.57960062435703
F         2.18572108236498       2.02026954670547      -6.78385690274429
