43
C13H28ClN optimized with ForceField in AMS.
N        -1.56411067314969       0.09138237935821      -0.06147351128126
C        -2.60136118664871       0.48278916784533      -1.07203202116093
C        -1.78439704462482      -1.34000459877799       0.32829964216184
C        -0.23284914197827       0.20176795591670      -0.75212341101925
C        -1.62538250487264       0.96112040357554       1.16515640952600
C        -4.05055613020897       0.24035430361820      -0.61552357728927
C        -3.21685047940660      -1.64495531942373       0.81115917653786
C        -4.25093710178480      -1.22008197259993      -0.22582681130429
C         1.00976023359108      -0.11216737402122       0.11915050513716
C        -1.28624184961632       2.44766689411348       0.94989816809223
C         2.29796854257782       0.06843866175889      -0.69592598095089
C         3.53981309284991      -0.25695961963473       0.14319645728464
C         4.82148783615355      -0.04539312905002      -0.67127630115773
C         6.06172079633900      -0.38909958628795       0.14824944454655
H        -2.46047271745871      -0.10303817793512      -2.01054491316525
H        -2.49576975050082       1.54517457947696      -1.37363841434241
H        -1.09721104578034      -1.63998021135879       1.14832797153233
H        -1.57135602374352      -2.01523186920354      -0.53241096256967
H        -0.10739876007446       1.21760871363183      -1.18944346224504
H        -0.20277943698627      -0.48965537484322      -1.62628987763625
H        -2.63039074930769       0.93265197639968       1.62824684242135
H        -0.94903468991425       0.56883018522095       1.95544578182030
H        -4.73722636165002       0.48268583077830      -1.45558216330049
H        -4.32661817802328       0.90969996998555       0.22487864804794
H        -3.42269223201849      -1.14796072375622       1.78188478883113
H        -3.31315446512846      -2.73856782965606       0.98512039045118
H        -5.27289943094446      -1.35782827388537       0.18877676536155
H        -4.15701281471004      -1.86303674355796      -1.12894477142879
H         1.06096209593209       0.56831051737599       0.99324354936440
H         0.97198503346203      -1.16041700905907       0.48131803452270
H        -0.24771640482588       2.58985517414659       0.59146675260663
H        -1.99851720513625       2.93577512198790       0.25658670262881
H        -1.36697461233172       2.97552786168431       1.92392427692296
H         2.36132413816476       1.12071923489144      -1.05175439088179
H         2.26999820413635      -0.60275718540623      -1.58268459575921
H         3.48798353480588      -1.31558883663110       0.48128147020446
H         3.56253494747305       0.40058023106229       1.04029530109156
H         4.80117501438867      -0.68882550877176      -1.57820486158826
H         4.88814369882332       1.01648866414133      -0.99519358883398
H         6.03696944939534      -1.45615806588957       0.45640445481053
H         6.97125518370839      -0.21811494462740      -0.46579590651619
H         6.11838731650876       0.25341022652303       1.05270659093254
Cl        9.29220895791550      -1.68463188591551       1.48251953129430
