37
C11H24ClN optimized with ADF in AMS.
N         2.15068247657616       0.47188248347011       0.09127441767120
C         2.48655727995685      -0.81186008789219       0.85691966636430
C         3.29273257303065       0.57815694758335      -0.91149265838979
C         0.83460602736200       0.33973312211998      -0.64069472125339
C         3.36556022173757      -1.65955329327152      -0.07693302383025
C         3.51664030164073      -0.84727331920080      -1.37907664864609
C         2.16634357445334       1.66050906375972       1.00268276464880
C        -0.40505896381841       0.34756502766992       0.24417048751793
C        -1.65996119611163      -0.00313404520421      -0.56119674691967
C        -2.92849149401217       0.01994683673052       0.29266833140769
C        -4.19080472950020      -0.33119269444146      -0.49399871419462
C        -5.45057476782988      -0.31110535491798       0.36899220913398
H         1.54440734094780      -1.28485841632792       1.15873423422183
H         3.09375740383296      -0.48789345042247       1.72081539079237
H         4.16346713934569       0.90069450690217      -0.29945004766425
H         3.02173971016896       1.31226245404566      -1.68311165216820
H         0.89049435684655      -0.59819695760410      -1.21281127912139
H         0.79709544556405       1.17659183184874      -1.35694204842409
H         2.95069837187859      -2.66207276819221      -0.25364846714300
H         4.35067810659449      -1.74553716873445       0.40984998524337
H         4.52325390020280      -0.95135719400710      -1.81099556889524
H         2.78868935630728      -1.15637163582057      -2.14679736036333
H         1.42200230831564       1.51533052975395       1.79368524544761
H         3.19127896907496       1.70003148195906       1.43230329999068
H         1.93125083525995       2.55560173833864       0.40995740148197
H        -0.29602025643919      -0.37639335194648       1.06969086086896
H        -0.53883701473720       1.34094569680776       0.70349886186660
H        -1.54061627966075      -1.00615878541825      -1.01143592516767
H        -1.77306891911166       0.70656902853573      -1.40196676523075
H        -3.04800581823511       1.02239565028675       0.74512988474636
H        -2.81433335431980      -0.68882520291898       1.13457659875983
H        -4.30404120357344       0.37913801740222      -1.33322599555785
H        -4.06736903411503      -1.33119852355166      -0.94845089938289
H        -5.61251575226174       0.68534798955008       0.80977744871020
H        -6.34505749145550      -0.56749415580628      -0.21838248527736
H        -5.37405201940608      -1.03376992502981       1.19703261188321
Cl        5.22893174839074       0.65448415844408       1.73064552497293
