56
C16H32F3NO3S optimized with ForceField in AMS.
N        -1.08476556731166       0.82572358937972      -0.18307899870570
C        -1.57510945945289       1.86655762048173       0.77909287990131
C        -2.05693682734893       0.73053799590156      -1.32082582335656
C         0.21686008291411       1.29171211921280      -0.77479613961116
C        -0.92997643355102      -0.48704066433609       0.53649757896499
C        -3.02152463048713       1.63787475254240       1.26682618260492
C        -3.50363171377192       0.44032125764789      -0.88922008728802
C        -3.99008098548733       1.49935903490165       0.09515938773033
C         1.41991131577654       1.36545284182951       0.19868230455948
C        -0.34346640082090      -1.64908946580453      -0.30105556438996
C         2.66648465569953       1.88126443966819      -0.53388885152095
C        -0.22022640277430      -2.91708554595719       0.55435960700174
C         3.88518866272403       1.92524371834253       0.39492077753793
C         0.36243873760042      -4.07936208224412      -0.25725315339529
C         5.11781094389373       2.43904883664213      -0.34457142166266
C         0.46016652430761      -5.34530676502746       0.58919535251683
H        -1.53823178146841       2.87796384641425       0.31238442280578
H        -0.93018867817608       1.90921023285656       1.68309876490188
H        -1.74468987357669      -0.03280339128532      -2.06327828465676
H        -2.07710286816847       1.69206955949212      -1.88610660634761
H         0.08740964073179       2.30600326767039      -1.21968949691302
H         0.50615852581714       0.64231772417292      -1.63131465568996
H        -1.90203068618318      -0.83851656109762       0.93270295709012
H        -0.29924449788145      -0.35370184702492       1.44283788805565
H        -3.33342728456718       2.50648334335189       1.88619981913765
H        -3.08474758127726       0.74442333281050       1.92212904835458
H        -3.59786912403022      -0.57462759432600      -0.45147143921867
H        -4.15665630557621       0.46227812069276      -1.78857252178362
H        -4.08157190642256       2.47734950290512      -0.42695403347087
H        -4.99589849144894       1.21773649753355       0.47490360395698
H         1.19920095335568       2.05258054247607       1.04081476563907
H         1.65512821635053       0.36150548821249       0.60728530374126
H        -1.00604735519224      -1.87942411639348      -1.15954096306973
H         0.66455949128026      -1.39111564657473      -0.68410417140187
H         2.46647117569850       2.90352666437587      -0.92442840720796
H         2.88983708095494       1.21271949563668      -1.39475707032216
H         0.44019975121818      -2.71178139792991       1.42585739974057
H        -1.22627608062316      -3.20360556436790       0.93345147488899
H         4.09838833964770       0.90544146272021       0.78347028803312
H         3.67659286601173       2.59498880218743       1.25745197980957
H         1.37729806956772      -3.80917327531807      -0.62252459802580
H        -0.28570624020196      -4.28524686485816      -1.13697796759637
H         5.98650996544027       2.46049328592525       0.34653540604783
H         5.36077378274891       1.77221881100772      -1.19940750706110
H         4.93942103591885       3.46821621299719      -0.72305341152012
H         0.90766318914020      -6.16311321070333      -0.01396378720574
H         1.09939876791297      -5.16788984153944       1.47917168913238
H        -0.54937272205772      -5.66211387309806       0.92679397720451
S         4.57645245700863      -5.16953065164246       3.98516955302903
O         4.95218796305292      -3.72631087004183       4.35124127445288
O         3.24882582732471      -5.38348818980318       4.72672714471476
O         5.57160109814487      -6.00668022940364       4.80193158109307
C         4.53868160314886      -5.53059066721998       2.20799734194251
F         5.79671634175128      -5.33712146370420       1.67163098371295
F         3.64124607613490      -4.68572597249346       1.58564557525266
F         4.15082747038030      -6.84209861919396       2.01211355116635
