54
C14H26F6N2O4S2 optimized with DFTB in AMS.
N        -2.83330118429364       0.04600480442568      -0.14189859801310
C        -3.44464599563285       0.96001977367954       0.88081613963542
C        -3.37994104493070      -1.33985733273768       0.03957526847505
C        -1.34440458318520      -0.03580187287042       0.09413090412456
C        -4.96489761613356       0.95786655177850       0.83195998644415
C        -4.90432465599006      -1.39510328687143       0.00652274855153
C        -5.51170254382294      -0.45032443593280       1.04304587737649
C        -3.09558923123801       0.53144368273474      -1.52538190898416
C        -0.58396624698944       1.25190419633108      -0.20985623118454
C         0.85644645246015       1.15502388646689       0.30209294718688
C         1.61451252972590       2.44334992307824      -0.03527302289436
C         3.06448363599711       2.38510380195376       0.45286616540790
C         3.80958837944226       3.67584858191614       0.11692340623675
H        -3.06594887788729       1.96507076819302       0.69494211178844
H        -3.09717090542391       0.61964416733278       1.86020505434317
H        -3.01699999710227      -1.69997504332254       1.00645750889945
H        -2.95558522301023      -1.96283341919780      -0.75155246011891
H        -1.21072190396654      -0.32156572649980       1.14143490440886
H        -0.96987237084249      -0.84732395909162      -0.53635733934753
H        -5.31310499664848       1.62666486461763       1.62228925275455
H        -5.31684798814269       1.36439426235413      -0.11826371892804
H        -5.27524230563409      -1.14631139046538      -0.99100178079216
H        -5.19632955664910      -2.42668715426233       0.22046877704780
H        -5.26224302781211      -0.79982513824838       2.05023318425044
H        -6.59917702501985      -0.44764195061961       0.94240023412370
H        -2.81033463815224       1.57920983215424      -1.59038071603574
H        -2.51152002132735      -0.06465014601076      -2.22353753095731
H        -4.15317494822924       0.43818412208399      -1.75364903780772
H        -0.56361133147193       1.42469023049565      -1.28708077985220
H        -1.07184751067225       2.10957378854002       0.25770289681535
H         0.85501585371229       0.99725418969827       1.38636051403361
H         1.35564734104998       0.29730342469397      -0.16198302817093
H         1.10494682828927       3.29341318690057       0.42931164475847
H         1.59737512162519       2.59817606681805      -1.11884707099978
H         3.57423463378735       1.53616200333183      -0.01595894322274
H         3.07888699207185       2.22652633335488       1.53682926180653
H         3.81999575768445       3.84040183048812      -0.96118069699145
H         3.32634288941118       4.52976731458082       0.59308837481413
H         4.83926814523767       3.61660558739347       0.47022343663275
N        -2.71940982420851       3.61653465133310      -0.85582256200505
S        -3.95489808517789       4.48284480336830      -0.29624942978632
S        -2.05935600297783       4.11827743588981      -2.24113713757187
C        -5.41684778593099       4.05354620959226      -1.39838645786760
C        -0.80727845456626       5.43231437861646      -1.77735385035436
O        -4.31362983864119       3.87021624281520       0.96491174348010
O        -3.80168207783138       5.91011782561138      -0.35050301321039
O        -2.97180669168444       4.72410524302734      -3.17413083308540
O        -1.24314285898591       3.01349590195598      -2.70113628840795
F        -6.49777148799889       3.90318925056946      -0.64438883325734
F        -5.17156911670516       2.87430154701103      -1.98543640588505
F        -5.65645300413195       4.95460924954069      -2.32004776900594
F         0.20593316067887       5.38360009160451      -2.62753861462680
F        -0.34470678438990       5.17482621256399      -0.55817764923471
F        -1.33300082033487       6.63654521783499      -1.79838270549666
