28
C8H18ClN optimized with ADF in AMS.
N        -0.31419370097922       0.30930896528103       0.02621170335763
C        -1.35056675594732       0.44562041929536      -1.08068080514273
C        -0.80366930909509      -0.90662136367206       0.82238450819446
C        -2.66996611328548       0.13619257123414      -0.39795270324471
C        -2.30615249341446      -1.04386824581901       0.52433903669132
C         1.04527612493888       0.06161779148805      -0.59975543408156
C        -0.30670564463789       1.52660878283231       0.88451515011185
C         2.16714547572928      -0.16481742321149       0.39845010404547
C         3.40991592585642      -0.65867337359046      -0.34642721210546
H        -1.10287871859664      -0.37171800720194      -1.79066298859121
H        -1.25405946192980       1.44320819849920      -1.53229094596353
H        -0.55476936217249      -0.74203966185396       1.87886657429834
H        -0.27910820362279      -1.77600080564640       0.38763840245002
H        -3.42763482308683      -0.14394136352901      -1.14478415176131
H        -3.06050988390370       0.99811217474173       0.16807053611054
H        -2.91699624471762      -1.06924245150171       1.43765003060459
H        -2.42904265900265      -1.98675283198832      -0.03362631650879
H         1.24661678343575       0.93126415682947      -1.24850877207217
H         0.88170377133225      -0.84611515079018      -1.22649884979652
H         0.02886139805931       2.38036444683929       0.28002149393769
H        -1.31964475622719       1.70525858789041       1.26477952371519
H         0.37940563761668       1.36900336265424       1.72506726330957
H         2.41043781336474       0.75459916078738       0.95982244554486
H         1.86007886628696      -0.93278625941865       1.12938534978120
H         4.24406555968800      -0.82040763178375       0.35092417333837
H         3.19268929349572      -1.60685270709633      -0.86132105667260
H         3.73667436211285       0.07293941443921      -1.10233302178773
Cl       -0.35123082569768      -2.62171133520855      -1.87841576306277
