78
C22H36F18NP optimized with DFTB in AMS.
N         0.89644711493199      -0.48997370133048      -0.21126132777184
C         1.39167006189885      -1.74064280764994       0.47695449416141
C         0.68341338015314       0.58200175598650       0.82511973042880
C        -0.37921593889919      -0.81784092381863      -0.94004187206517
C         1.89980059267120       0.01290414788312      -1.22502292070491
C         2.60091385192498      -1.54087973461951       1.38777427493331
C         0.09543770266576       1.89002116039016       0.30174707668362
C        -1.59275973666265      -1.11376158883969      -0.06001097311808
C         2.40761866252918      -1.02598822374382      -2.22201027054390
C         3.27589728694211      -2.88666523720275       1.68136794983731
C        -0.01115807665982       2.88567429922808       1.46496218281970
C        -2.77568028359371      -1.50868133349131      -0.95461266029726
C         3.15455237227570      -0.30069811205393      -3.35133937991029
C         4.41952719290024      -2.69612125954840       2.67583624408073
C        -0.56768465273370       4.22492845943031       0.98853756103489
C        -4.02120889937872      -1.79741576572543      -0.11992819939493
C         3.88710925453608      -1.29691301979746      -4.24579106345261
H         1.61851070778852      -2.46271789896455      -0.30977898904108
H         0.55826880522958      -2.13063738976628       1.06498006421473
H         1.65977974169787       0.78728512759554       1.26345074271861
H         0.04099032538373       0.15820340874183       1.60057779633848
H        -0.16778283352988      -1.68788267145449      -1.56570785362979
H        -0.60247262748460       0.02731351497471      -1.59547984686508
H         2.73977188713787       0.43209904927300      -0.67104293292351
H         1.41061311308702       0.82553022090086      -1.76631194173758
H         2.28447549577692      -1.08291022983497       2.32882060629189
H         3.33421432476982      -0.88544524452470       0.92253793421049
H        -0.89467500766964       1.73206602990655      -0.13370761521266
H         0.74353460919918       2.31776677358318      -0.46609733739552
H        -1.86960955428904      -0.23435241109075       0.52610115704451
H        -1.38274098418762      -1.93102548014498       0.63444589223557
H         1.58344320473967      -1.60394586930066      -2.64940209741853
H         3.09287479109162      -1.71947894647557      -1.72960028257627
H         3.66529905590195      -3.30452504995313       0.74737785002267
H         2.54055737143883      -3.59032989122251       2.08706880140041
H         0.98178999777904       3.03720283272655       1.89900983657018
H        -0.66113633683783       2.47048561186327       2.24240160016805
H        -2.51026166485174      -2.39691690792060      -1.53703420603184
H        -2.98560678113058      -0.69597421491871      -1.65756894642748
H         3.87710453052125       0.39610184664414      -2.91862301187709
H         2.43929173523265       0.27953411715246      -3.94383958241867
H         4.03658923322171      -2.34501732574450       3.63477159993115
H         5.13378671401428      -1.96490247627622       2.29830517376993
H         4.93678395780278      -3.64247456821583       2.83006058779776
H        -1.56242832515618       4.09713828318378       0.55942178214929
H         0.08555843133444       4.66103446613742       0.23238042658785
H        -0.63641722453060       4.91518639701080       1.82876619306253
H        -4.30984433633087      -0.91615779567969       0.45391057613968
H        -3.83560167755851      -2.61905134432631       0.57262502546509
H        -4.84784579710136      -2.07319673497770      -0.77395360273431
H         3.18811111349145      -2.01087526840892      -4.68460870807740
H         4.63103766879252      -1.84561851805513      -3.66809553249997
H         4.39491703270155      -0.76484755923746      -5.04947895510550
P         6.91370459519203       0.93177775977545       0.19275418701997
F         8.19919429594142      -0.11957545016246       0.37224306173773
F         7.65108696591566       1.62582100421124      -1.13714330001821
F         6.09959580032456       0.22167198573223       1.49945086809001
C         6.09134524694922      -0.44384251396163      -0.94760647519531
C         7.82590236980310       2.10247647189810       1.45568680497296
C         5.37456560519379       2.22287591390930      -0.13176465467244
C         6.58074854954359      -1.91119069191191      -0.84050829339121
C         9.01817561108447       2.95426820909636       0.94803892275445
C         4.17117350126335       2.41747739128151       0.83722922819867
F         6.13513168542257      -0.14290546355897      -2.25497742983390
F         4.76709230736212      -0.50888724755068      -0.61356670836267
F         8.29446068510246       1.34733140808886       2.46179184517552
F         6.93052521651118       2.95403550599995       1.99521265187034
F         4.79899352787517       1.89355648703777      -1.31735541168682
F         5.90368737161116       3.44894186061725      -0.30071692376287
F         5.69638098135668      -2.70592643764050      -1.47668873958007
F         6.64110880984796      -2.33329877164128       0.41814565077678
F         7.76007738064780      -2.08966298806382      -1.41314193839786
F         9.60169760351968       3.58314416158796       1.97223244780453
F         9.93561911304992       2.19211281352866       0.36226853871249
F         8.61856616274141       3.87900035472481       0.08069818121092
F         3.08861566137074       2.85131902226679       0.15603441721625
F         4.40438426327474       3.28964445810580       1.79951181266250
F         3.78208460171802       1.26678193823196       1.41252388483088
