45
C11H20F6N2O4S2 optimized with ForceField in AMS.
N        -0.05520835750708       0.24481602637344       0.15739037673006
C        -0.97229150541330       1.23478224680880      -0.49103273386222
C        -0.50091165355944      -1.14699346576504      -0.15517179519099
C         1.30852057462241       0.48803073992969      -0.42041184252079
C        -2.46307185929140       1.01967641396848      -0.17316203323974
C        -1.97927948933925      -1.41253332204202       0.18395967209074
C        -2.88991718681753      -0.40506317527531      -0.50839086662085
C        -0.01769582409035       0.47271268655165       1.62775691862760
C         2.44814051814370      -0.40254230412069       0.13314209681283
C         3.77062077365198      -0.07111845022216      -0.55617894202269
H        -0.86939726524591       1.18495139636392      -1.60059053321651
H        -0.69913897352290       2.27332111036131      -0.19509094668286
H         0.09833309318864      -1.88747411267655       0.41158207813698
H        -0.35247066328689      -1.36682644344955      -1.23745308776473
H         1.60366493318706       1.55024750002152      -0.25205636574893
H         1.28180632548054       0.34520274192076      -1.52583024654579
H        -3.06534147465529       1.72634129760913      -0.78433707514679
H        -2.68474671541836       1.24934943707584       0.88930984623356
H        -2.14130352031988      -1.38387736655114       1.28232590048220
H        -2.25270023613398      -2.43314295898099      -0.15965184454161
H        -3.93911752289929      -0.56518662870455      -0.17867777246945
H        -2.84673063222439      -0.55927873716054      -1.60922375164165
H         0.57259670573363      -0.31108572251479       2.14768746878365
H         0.42201877751104       1.46624200967252       1.86752795371541
H        -1.02427333821823       0.43903736888086       2.08695353562155
H         2.58931409965859      -0.23504662776576       1.22043646173386
H         2.23592599384167      -1.47652664321248      -0.04303869669149
H         3.69397126858908      -0.25554847091177      -1.64906383526887
H         4.04023549738599       0.99290247183179      -0.38349098571395
H         4.57874520629256      -0.71187532229492      -0.14469599624426
N         1.97367856603890      -6.87179132881462       2.14983681121241
S         2.95235990039056      -6.44950207565531       3.39487537529095
S         0.42613857971687      -6.34751007764763       2.02071486678362
C         2.82979014767288      -7.68148163360878       4.67463378573917
C         0.37616373336166      -4.96471669442897       0.90386704399850
O         4.37265927412169      -6.39310817302879       2.90875994271408
O         2.55811888245045      -5.10874706120847       3.94950252524624
O        -0.11023162804031      -5.92675979842945       3.36081137043344
O        -0.42555518734528      -7.45222771542698       1.46332850522787
F         3.67391621860500      -7.35107257772315       5.71747703995731
F         3.19220183539182      -8.91367829077513       4.16467683820876
F         1.53009307413632      -7.74342751145356       5.13946882559847
F        -0.92059056489617      -4.49941346360410       0.80781971490007
F         0.81514796150049      -5.35991383722148      -0.34539955718132
F         1.19479433475168      -3.95909529889501       1.38019890643617
