35
C11H21ClN2 optimized with ForceField in AMS.
N        -1.12239179796617      -1.72837811376275       0.28385424476407
N         1.10134717179960      -1.70647890452684       0.31500160062059
C        -2.50791378155375      -1.44060909859789       0.65030485476549
C         2.46976566853106      -1.38916526747712       0.72073402078445
C        -3.01671392369319      -0.18134928718941      -0.06503264160983
C         3.04579767147982      -0.24167519816790      -0.12159283844810
C        -0.02315063032624      -1.43060932353578       1.00367275025239
C        -0.67892025464203      -2.21789835785010      -0.89194624715208
C         0.70040437524773      -2.20802587206705      -0.87119259720409
C        -2.23506902452081       1.07204663588643       0.35544855196794
C         2.20379706298893       1.03708435185751      -0.00318614548430
C        -2.81697268366563       2.32982408351206      -0.28150198732410
C         2.85582885437969       2.20285846916573      -0.73910232834926
H        -3.14762360781715      -2.30727589373503       0.37591945601914
H        -2.59026200815437      -1.30058484856640       1.75075289406749
H         2.49207816016533      -1.10070379158521       1.79514023310802
H         3.10606858211945      -2.29257682850439       0.60247239907943
H        -4.09044903804345      -0.04505820729385       0.19006635149574
H        -2.93878390157745      -0.32094460460064      -1.16554583405748
H         3.10191971038365      -0.55351188059533      -1.18742940933109
H         4.07979789077102      -0.03543503631310       0.23207006720885
H        -0.04178658393730      -0.95946615986619       1.97881632590738
H        -1.30866233634008      -2.52508689464261      -1.71681856538715
H         1.35890791274771      -2.50485978788132      -1.67711605734482
H        -2.26247219909248       1.18123623762715       1.46152444624285
H        -1.17567298339999       0.97850788112142       0.03779907135191
H         1.19824348043617       0.86534490055426      -0.44206279084695
H         2.07937236201880       1.30978449952120       1.06627761268475
H        -3.86577995551379       2.48094996213731       0.05178969471107
H        -2.78969802976594       2.24929041155197      -1.38904484072236
H        -2.21629087945137       3.21271203283932       0.02409191071294
H         2.96283029917172       1.96430590552299      -1.81866922102200
H         3.85621136358303       2.42028067688851      -0.30797482550875
H         2.22087426125518       3.10847826717604      -0.63665217086404
Cl        1.82596499848229       1.67403052459705       4.08769795141192
