44
C12H24F3NO3S optimized with ADF in AMS.
N        -0.32562276676943      -0.33312321443896       0.49142974616622
C        -0.55779731134805      -1.65694705422836      -0.22932404660846
C        -1.27224721802096      -0.44520374165548       1.67461820714658
C         1.09822566824391      -0.22776834175275       0.99045799663788
C        -2.04497650867787      -1.97970615108941      -0.04494382002142
C        -2.53790636075611      -1.07622048209063       1.11274157574830
C        -0.70643110139692       0.80443521364533      -0.42579103451866
C         2.15501779513579      -0.22278251117906      -0.09872054679997
C        -0.49289309061021       2.19967403018669       0.13849503521608
C         3.52676070838269      -0.47482719305975       0.53583971372432
C        -1.01519222161909       3.24908587078192      -0.84302096976879
C         4.64152621451517      -0.53974432637234      -0.50159331147458
H        -0.24450935328364      -1.54373137020689      -1.27481550296011
H         0.08356813302455      -2.39083817065176       0.28255190762408
H        -0.79175223735753      -1.14967487712008       2.36912821624627
H        -1.39539386028981       0.53990845335648       2.14049633055136
H         1.24300678665345      -1.12204404283598       1.61381817074891
H         1.15261787219226       0.66837427862394       1.62596123984927
H        -2.62161115127750      -1.80121201510658      -0.96491416754103
H        -2.13909521440918      -3.04086212862740       0.22477846494701
H        -3.03068701665697      -1.66275720770717       1.90092540604740
H        -3.25302002133456      -0.31716935171852       0.75793360575557
H        -0.11168823478598       0.67264091903829      -1.34289045319634
H        -1.76404776824461       0.64936402703959      -0.68899127530048
H         1.95744538477187      -1.04014108050577      -0.81260256315351
H         2.16554513713242       0.72512913321112      -0.66701442996037
H        -1.01125042104362       2.31349647515797       1.10454247973400
H         0.57993032220223       2.37279448692792       0.32222557646039
H         3.74342281104358       0.31587647162776       1.27700105243297
H         3.47240432616838      -1.42750226029028       1.09001027703909
H        -0.51249508397448       3.16775300943330      -1.81939614237861
H        -2.09793478289341       3.13765298972796      -1.00793685252953
H        -0.83454824103329       4.26230297965406      -0.45583287021656
H         5.61012841503613      -0.74723750145312      -0.02241755969371
H         4.44920122894326      -1.34581973871152      -1.22742563185244
H         4.73390873486040       0.40586494202851      -1.05980374251036
S         0.71993212070431      -3.79813214576445       2.68674198057541
O        -0.68370052905156      -3.33807144252317       2.55733141830448
O         1.61816718380939      -3.20641615872139       1.66089003302127
O         0.92342769231120      -5.21147343178913       2.98493470698973
C         1.27671295413591      -2.92184238265519       4.25319246494311
F         0.54070761523179      -3.30551560941668       5.32488164907117
F         1.13471705850931      -1.55549137152844       4.13155860495755
F         2.58308238162679      -3.16386303024059       4.52559904224651
