34
C10H22ClN optimized with ADF in AMS.
N        -0.06504386905780       0.04029506413373      -0.06272563354927
C        -0.96058185827468       0.54641993811508      -1.18812902110886
C        -0.57673358550697      -1.32504981177989       0.38768371718031
C         1.31391058672309      -0.14375028385910      -0.67922652915269
C        -2.42783324281213       0.58830432543124      -0.80501359543398
C        -2.04765224779724      -1.31399670617679       0.76772989705035
C        -0.03838645270626       0.98247069155197       1.11479635420729
C        -2.90439607577709      -0.80226831557152      -0.38804662931774
C         2.40295039612085      -0.59446772812248       0.27660443035118
C         0.52360015598997       2.35929203186901       0.82109900363220
C         3.69232421780155      -0.83489515848260      -0.51056746632313
H        -0.80119017943985      -0.19394374278610      -2.00603101527250
H        -0.56775309191120       1.52749038934927      -1.48806613683632
H         0.05841718697397      -1.63619619013289       1.22802605011607
H        -0.41741729279139      -1.98059237201668      -0.49924068072275
H         1.57435315410279       0.81880600501632      -1.14570953657725
H         1.14538509192754      -0.88991913894919      -1.48858243175426
H        -2.97784564884609       0.93428755300277      -1.69610545737358
H        -2.62744411930186       1.32718922713906      -0.00633993586175
H        -2.23288211094563      -0.72348531765325       1.68398023772597
H        -2.31114382559028      -2.35743264224159       1.01086418992565
H        -1.06986719503532       1.06003905490780       1.47895085035346
H         0.54959354110969       0.47714191402000       1.89483057742784
H        -3.96848129976533      -0.78322446376581      -0.10532432131192
H        -2.78133880686881      -1.48659203962870      -1.24669706441399
H         2.58840888813905       0.15269374329107       1.06840246559675
H         2.11196353811981      -1.53503909419368       0.77098096172440
H         0.49057151989727       2.94991384549435       1.74858196653140
H         1.56975508680802       2.32013833010502       0.48831482433387
H        -0.06770637171289       2.89716468275013       0.06751036468151
H         4.50239414384052      -1.15960615767197       0.15792192459714
H         3.53573391490076      -1.61224436851589      -1.27260629440894
H         4.02097565235868       0.08228236459112      -1.02320505667186
Cl       -0.23061586317276      -2.28935944811981      -2.76018835394459
