58
C16H34F6NP optimized with ForceField in AMS.
N        -0.03308237422281       1.98629963747781      -0.01035678316884
C        -0.71089292845462       2.88509061480957      -0.99518891144357
C         0.61952112090919       2.90798069011338       0.96926493084136
C        -1.04597831917715       1.14141841284265       0.70273093547250
C         1.00433659548215       1.16566471687614      -0.71708768179369
C        -0.24261043722281       4.30606411191669      -0.74487175947826
C         0.11248719811978       4.31375588566157       0.71506786191064
C        -1.78013869925528       0.11567240388083      -0.19548956690073
C         1.77194013015721       0.17207035545797       0.19028612178618
C        -2.88047974941018      -0.60403928051318       0.59503003805013
C         2.89025812025238      -0.52396965256367      -0.59616433262803
C        -3.62804044249170      -1.61503091280319      -0.28266352805159
C         3.65802629275380      -1.51690270587291       0.28483767322941
C        -4.69117366485322      -2.36207555050487       0.53124311589600
C         4.73136256534192      -2.24997426487615      -0.52853267327263
C        -5.44428926433423      -3.36801466268517      -0.33386718787764
C         5.49897744945425      -3.24458533916642       0.33695683488706
H        -0.51287736350446       2.60548437237064      -2.05518376358080
H        -1.81851593169510       2.88436437920449      -0.87443066061656
H         0.43314545904139       2.62698383141171       2.03090792425064
H         1.72437807251830       2.93864708130707       0.84218221962096
H        -0.57118163758613       0.59087540304281       1.54509928709914
H        -1.80922749737459       1.80117766991886       1.17776290699893
H         0.54537231917640       0.59322146203863      -1.55350230386719
H         1.74673077525430       1.84350371756559      -1.19973934685016
H         0.66294361880585       4.51943359377999      -1.35503038215316
H        -1.03372304287562       5.05303620429525      -0.97452184035633
H        -0.79812205239288       4.50397035506277       1.32524676773220
H         0.88381645467504       5.08198658145002       0.94271391565629
H        -2.23551723223012       0.62093460634452      -1.07291229037810
H        -1.06605741428767      -0.64937688039902      -0.56534701049907
H         2.21642246662017       0.69939307781499       1.06044847506885
H         1.08170318445077      -0.60900463211026       0.57158631331455
H        -2.42038789271271      -1.13593198715211       1.45734271023333
H        -3.60453173590138       0.14382102210151       0.98730039106768
H         3.59820940554424       0.23943609883496      -0.98795976533316
H         2.44436797510301      -1.06758533821030      -1.45864034988609
H        -4.11721019336768      -1.07897234348022      -1.12601179420714
H        -2.90381055535148      -2.34815184304352      -0.70202300668927
H         4.13988505816332      -0.96790264939925       1.12410917019322
H         2.94791678093564      -2.26060568955866       0.70972436905900
H        -5.41952667258223      -1.63624926946198       0.95458104007483
H        -4.20655075334148      -2.90494471196402       1.37206228598951
H         4.25416172748557      -2.80097803848245      -1.36836002786978
H         5.44899098514309      -1.51440627012809      -0.95323161530735
H        -5.96541259978003      -2.84761238094516      -1.16575139549249
H        -6.20097495228827      -3.89563792573370       0.28482085750346
H        -4.74135017371470      -4.11952687478562      -0.75286056981976
H         4.80706892719928      -4.00612130167033       0.75631111385486
H         6.26282629657944      -3.76170439390277      -0.28186250159425
H         6.01286976335262      -2.71652571860737       1.16846466741478
P         4.43691961060055       3.49623439883493       2.90528278796378
F         6.02729487613555       4.12810940400768       2.75493988472685
F         3.76441641521636       5.00633612149819       3.37332438890193
F         4.08426930734497       3.97518317996221       1.29387555273497
F         2.91726025101121       2.79339888596842       3.28716553341378
F         4.87679252440731       1.96915711263943       2.25211946378033
F         4.97648538517346       3.12187683312909       4.49284792628845
