54
C14H26F6N2O4S2 optimized with ForceField in AMS.
N         0.98146524854786      -0.30807181277838      -0.00729921605620
C         2.04919445617916       0.07324890784541      -0.98346498473722
C         1.65608438830070      -1.22496128530500       0.96207597638197
C         0.48882952357147       0.90561064339047       0.72238367626658
C        -0.11467378993593      -1.03099501579961      -0.73087147326639
C         3.26293952425940      -0.79847590777425      -0.72558403709455
C         3.15233153798648      -1.13276068994560       0.73336196973340
C        -0.24970246666882       1.93788065200464      -0.16339566551469
C        -1.29972422356758      -1.47255646991380       0.16099632682993
C        -0.57234923641684       3.20555090190916       0.63842788497979
C        -2.29942339906118      -2.31087523876694      -0.64709692837188
C        -1.30741110988583       4.23297048341920      -0.21751413667625
C        -3.48555104526269      -2.74355492110741       0.20995389543229
H         2.37980594697780       1.12950735579631      -0.85671313365648
H         1.73207104231109      -0.03051094454242      -2.04653887950648
H         1.36929938662518      -2.29008294717824       0.80343422145460
H         1.42101852344887      -0.99208159782915       2.02609840176983
H        -0.18920109146616       0.61210715996573       1.55415583523506
H         1.35067744334364       1.41652686195479       1.21198918023337
H        -0.51490761428588      -0.40236450392304      -1.55693603261022
H         0.30529120200924      -1.93705312822601      -1.22715331621349
H         3.19629945431787      -1.72950847532958      -1.33154403173879
H         4.21423429442358      -0.27018117858753      -0.95355225744125
H         3.57944681893861      -0.30757926596577       1.34559041919864
H         3.67379294392479      -2.08388558852426       0.96948349307471
H         0.37033605437606       2.21609488482150      -1.04121384677329
H        -1.20416136685209       1.50887043093865      -0.53320695274593
H        -0.93732618894972      -2.07327797011532       1.02165731233633
H        -1.83379117353574      -0.58305518122449       0.55485347109986
H         0.36861418972714       3.66237435095333       1.01571330413905
H        -1.20995529885641       2.94340784316051       1.51089635229815
H        -2.67780051771598      -1.71499999466586      -1.50642220347394
H        -1.79517409681137      -3.21863573659406      -1.04460336804127
H        -2.26285868376651       3.80975742132020      -0.59422805748693
H        -0.67626162426557       4.54054995902462      -1.07833875675483
H        -1.53425963522386       5.13107358652537       0.39480648465281
H        -4.02127431171379      -1.85464356819728       0.60592262460259
H        -3.14033050635986      -3.37336716844657       1.05726493353866
H        -4.19222594185206      -3.33663710439646      -0.40813633416570
N         4.65820103796420      -6.70874242208932       2.22315560073176
S         4.28264371892868      -6.15811144473875       3.72057488476625
S         6.15852957666789      -7.23126011646959       1.81910633769558
C         4.48838691084168      -4.39021250294028       3.76044979451474
C         6.20345534222442      -9.00822582329990       1.92633245667935
O         2.84687677589145      -6.48404117489110       4.01880365484367
O         5.16792273912069      -6.79071243090614       4.75823461295412
O         7.19505913240770      -6.64644382261523       2.73815036071247
O         6.45631091590944      -6.82476269043729       0.40390044550949
F         4.18047224445679      -3.91587493998791       5.02119224636029
F         3.64148889339855      -3.81205233845330       2.83591817305567
F         5.79560880389042      -4.06300663562231       3.45352955493555
F         7.46921383383546      -9.45874943705878       1.60270426137313
F         5.28572084374455      -9.54669404608697       1.04425787880527
F         5.89007534530303      -9.40603439309597       3.21226271593083
