36
C10H17F3N2O3S optimized with ForceField in AMS.
N         1.01046414447832       0.35633399576784       0.46252106703900
N        -1.00986814461438       0.34345026440716      -0.46568376501025
C         2.26140299410352      -0.10919954270785       1.05791925437056
C        -2.25744323160568      -0.13775447488958      -1.05535806816579
C         0.00414099495073      -0.41034375050760       0.00049664259764
C         3.44036985293710       0.10030324342334       0.10109592184826
C        -3.43409763118914       0.05743574250361      -0.09266724382372
C         0.62139061737333       1.63509396260197       0.28232785874615
C        -0.63341546628587       1.62705456119139      -0.29362649866482
C         3.27762140712699      -0.70277268087692      -1.18852354462807
C        -3.26799587323076      -0.76329164853085       1.18579010096047
H         2.18246900438817      -1.18849544829398       1.31585561792536
H         2.44741203148333       0.44592544532696       2.00266177407353
H        -2.16623604423153      -1.21579370953081      -1.31444878237718
H        -2.45470777157717       0.41541712500104      -1.99896943043350
H         0.00921905605602      -1.49352274924040       0.00427195692652
H         3.54156077344527       1.17941557710964      -0.14488939017273
H         4.37363833631124      -0.22494923664285       0.60932646071351
H        -3.53670813975157       1.13308707246071       0.16767858498341
H        -4.36819081873462      -0.26238002725141      -0.60285615829811
H         1.20308041875833       2.50660680290723       0.55369393836839
H        -1.22432754046965       2.49105105376408      -0.56919890536602
H         2.41713346388849      -0.31749459132733      -1.77474619655727
H         3.11368416201260      -1.77746246109074      -0.95905452463876
H         4.19468072717893      -0.60728813729044      -1.80678083287988
H        -2.40629573369625      -0.38862378135732       1.77788676657811
H        -3.10594101433078      -1.83477195680012       0.94089022974758
H        -4.18473101572801      -0.67611745053569       1.80581897522693
S         2.96406362723383       0.01022961687393      -5.89703342248020
O         2.79568514997065       0.66403868293464      -7.27666889664944
O         3.37538277860793       1.18757605946092      -5.00057516661052
O         4.26804068489166      -0.78741958733382      -6.04636146810270
C         1.53504208896202      -0.94464304711938      -5.31563070953912
F         1.23996239547628      -1.93620297010453      -6.23142063215583
F         0.44549837745167      -0.10613125173838      -5.17749510242037
F         1.83013040675902      -1.52068784936443      -4.09549713893110
