71
C21H29F18N2P optimized with DFTB in AMS.
N         3.40965104072439       1.83331694241101      -1.07761956935629
N         3.79891882545013      -0.20596724024709      -1.64112609539604
C         1.58164211939371       3.21036377110338      -0.20610237865682
C         3.09760050037724       3.00426800141640      -0.26751761787448
C         3.07529760571737      -2.35499464590136      -0.68337230374661
C         4.10161136949062      -1.63307433496942      -1.55376040609884
C         0.87344297207754       2.04106493845531       0.48489369860713
C         1.64953082000580      -2.19618371532561      -1.21973983359277
C        -0.64214495829208       2.25422249297133       0.53918833444965
C         0.62777894297281      -2.84602339360376      -0.28189418727467
C         3.61266611487742       0.60537807317121      -0.60326013668468
C         3.47033948352158       1.80613383937596      -2.44382242862559
C         3.72036084998805       0.51756032022158      -2.79763382109735
C        -1.33746153644714       1.06745365917611       1.21374468582865
C        -0.79806108876496      -2.67915919677258      -0.81648128558498
C        -2.85334578507061       1.25041406988434       1.24451318562121
C        -1.82712084523771      -3.26995011024464       0.14546853299635
H         1.39225710901914       4.13552594816563       0.34493661230760
H         1.19229596987899       3.33444094036418      -1.22128572208721
H         3.13467708198036      -1.97420303297866       0.33990405062141
H         3.34951287442650      -3.41273293446172      -0.65827912473564
H         3.59008682714392       3.86700850040844      -0.72205786784596
H         3.51131854046023       2.84118944293458       0.72998386004247
H         5.10216122027007      -1.73429412449304      -1.12651448158487
H         4.10464816222123      -2.02941107357873      -2.57178140487298
H         1.26603219200633       1.92801602089660       1.50097215880075
H         1.08614188058960       1.11405820242875      -0.05972116769775
H         1.58036485454138      -2.64987314607992      -2.21427510793745
H         1.41533436607094      -1.13014266181960      -1.32378743198582
H        -0.86242624032476       3.17294817280678       1.09258941380399
H        -1.02827035552122       2.37574043601885      -0.47868661029365
H         0.70326122895663      -2.38477052608398       0.70887442868632
H         0.85698970063220      -3.91095885435276      -0.17309824932561
H         3.65036149152922       0.33159436672092       0.43604132949949
H         3.34880085923418       2.69297019427153      -3.04036563064098
H         3.85868153547151       0.06559433210355      -3.76393404497856
H        -1.09336839653803       0.14890814463554       0.66907002889143
H        -0.96098841131477       0.95854421202007       2.23621636693004
H        -0.88184912023186      -3.17271193047052      -1.79051119069691
H        -1.00804466238631      -1.61367522882148      -0.96363092229690
H        -3.11869950033495       2.15031791605040       1.80062718625587
H        -3.24842349308250       1.33866361786452       0.23158461038834
H        -3.32191168596048       0.39256513743441       1.72679809496775
H        -2.83207782022592      -3.13891803312628      -0.25596928260266
H        -1.77259699004434      -2.77299024419302       1.11505949949476
H        -1.64652606644982      -4.33560966398876       0.29094261073134
P         7.52749539950621      -0.18699305194418       0.38463223871251
F         5.82740606128840       0.02810159004508       0.57254267917965
F         7.16557453916374      -1.31793164342486      -0.82750706887613
F         7.86201060501768       0.95555406486512       1.57443732863703
C         7.30901837495937       1.29869981445885      -0.90294550553779
C         7.31430107398978      -1.50932444777810       1.82411724651066
C         9.44005923141893      -0.55970722980755       0.01816870609894
C         6.82708309406756       2.66660365519133      -0.33664370938185
C         6.79905237690163      -2.92405039137764       1.45257533587197
C        10.52200783963962       0.32839199797120       0.68467597704278
F         6.36834594643776       0.93966697516046      -1.81211795051683
F         8.42142822434622       1.58945951247729      -1.59435070842335
F         6.41582036651151      -1.02504449393882       2.70368534214912
F         8.46304985272050      -1.66039907067027       2.50211930362002
F         9.65019540920901      -0.50546442590942      -1.30990487524801
F         9.68463436888040      -1.83342829419706       0.38225758291170
F         6.32995987200014       3.41489883770199      -1.33853283851182
F         7.81178510673355       3.34413907669811       0.22598752116365
F         5.83648472272767       2.54925961394918       0.55660695390590
F         6.64941849738100      -3.67454409009059       2.54326259201460
F         5.59115369140614      -2.83195855577048       0.86749840805660
F         7.60501295953389      -3.56607272107810       0.61956654524808
F        11.73664446967181       0.02232073593769       0.22903845162570
F        10.52495597717779       0.17133909055058       2.00354767444260
F        10.29547509380800       1.61430892158179       0.41561867695179
