29
C9H14BF4N optimized with DFTB in AMS.
N         0.94561530007054       0.18999360220116       0.74272752890823
C        -1.39503230144025       0.02954092056139       0.04045226353805
C        -0.43575148213769       0.12211235030717       1.22726995376230
C        -2.84448086523611      -0.04807810972098       0.53034236946449
C        -3.82096178541025      -0.13172993329546      -0.64077079892877
C         1.51624249239124       1.39110615724286       0.55238236580788
C         1.66925758108108      -0.93772124277047       0.65434622531824
C         2.81550475228455       1.48351964543671       0.09196552827855
C         2.97191650215892      -0.89917521851827       0.19513107957506
C         3.55526719070818       0.32498429140408      -0.09751717581658
H        -1.15350528549803      -0.85871374018361      -0.55277761730795
H        -1.26448276501518       0.90749922428627      -0.60084668994677
H        -0.52190196672763      -0.74950223568442       1.87887406934028
H        -0.62611421067829       1.01569449669968       1.82510929210538
H        -2.96328345920475      -0.92838472385527       1.16995635684593
H        -3.07028725716972       0.83724159092732       1.13315372523616
H        -4.84333595332615      -0.18667150640181      -0.26741307531338
H        -3.73032019460233       0.74842263908885      -1.27873488847330
H        -3.62209970882034      -1.01946869690279      -1.24266007662558
H         0.90138584258147       2.26270262812289       0.73061660599722
H         1.17319949247131      -1.86347924829331       0.91211557414495
H         3.24975365484898       2.46057422079950      -0.07354164785055
H         3.53054850466179      -1.82203897162123       0.11190600429026
H         4.57894634420547       0.37707497397285      -0.44803561734530
B         1.62886037002783       0.36023430320625       3.65158251646364
F         2.32547997211308       0.46407012852921       4.81825464618378
F         1.86906450753197       1.50046893066915       2.82102683271308
F         0.24676452747730       0.26324237138324       3.84684708514429
F         2.04375393165299      -0.79564634619093       2.91871844559042
