34
C10H16F6NP optimized with ADF in AMS.
N         1.65107772673535      -0.34515702091280      -0.41486433342556
C        -0.75170202117875       0.05801543762871       0.02266228906296
C        -2.15868189370861      -0.19403676364989      -0.51661986436772
C         0.30757319725231      -0.21821467963963      -1.04052482494564
C        -3.21302128466889      -0.08987409070309       0.58522790895476
C        -4.62132564646163      -0.36747078150327       0.06715473230883
C         2.18652885252524      -1.56834829523822      -0.23175524660100
C         2.25650232003751       0.76505431102935       0.07069793372381
C         3.38685166950674      -1.71207881341390       0.44783290778989
C         3.45347917418885       0.67056585649556       0.74634430087243
C         4.03057638617699      -0.58817791732673       0.94158784395269
H        -0.56424924643730      -0.62045145372641       0.86884146774880
H        -0.65892405492244       1.09686030840165       0.38955092248790
H        -2.19176500779598      -1.21494474572998      -0.93694087505165
H        -2.39369106109426       0.51115824653449      -1.33685943111997
H         0.10482978282817      -1.17596954403592      -1.53575690452424
H         0.37424852141958       0.57506980147937      -1.80150852584819
H        -3.17167220466346       0.91479299652217       1.04401022004111
H        -2.95644050757966      -0.81636526944314       1.37546715268901
H        -4.91188371053726       0.35704742169609      -0.71039467212642
H        -5.36298211590226      -0.30918996183736       0.87880751874379
H        -4.68206215097734      -1.37674388593299      -0.37003814832704
H         1.61070016950362      -2.41550734443622      -0.59919718652948
H         1.73804677084718       1.70653618490702      -0.10077077097408
H         3.76376342258284      -2.72139063727362       0.61069971145446
H         3.92264948192970       1.57743316225540       1.12727448360629
H         4.96873021978687      -0.68231613688595       1.49106923002486
P        -0.04697786920339      -3.66937678802387       1.46604690447612
F         0.69465345924839      -2.20511803765984       1.85944950460351
F        -1.48270302236881      -3.04572605029808       1.97183310579927
F        -0.35197051903600      -3.04205536124822      -0.07858753731573
F        -0.75306531080403      -5.07103690819552       1.02291520072757
F         1.42917621218684      -4.20536183785732       0.89468198904977
F         0.29486032698388      -4.23823942827784       2.95643165953888
