42
C10H22F2N2O4S2 optimized with DFTB in AMS.
N         1.05467329815697      -0.36992616773618      -0.02435156101541
C         0.92351171097129       0.06225019097245      -1.46012571984947
C        -0.09289850868539      -1.27445591688708       0.31207470029959
C         2.33624941061663      -1.15972959242966       0.07126383979498
C        -0.41140657588840       0.72082326624039      -1.77327453637369
C        -1.45503103012790      -0.64772141472357       0.03515071627760
C         1.07019411392457       0.80941856528436       0.90918955222634
C        -1.56997738282895      -0.21029904836717      -1.42390492189947
C         2.66972064443052      -1.71330874617328       1.45330699268989
C         2.29570669481020       1.70250859246767       0.78777652198702
C         4.06132494707610      -2.34735634414162       1.39787690064809
H         1.04209265514304      -0.83777927553473      -2.06850987056916
H         1.75116653121732       0.73617817546191      -1.68263623876577
H        -0.00901419269054      -1.54269709908663       1.36692120928936
H         0.03071031400526      -2.17610448048589      -0.29399732201225
H         3.13594267439177      -0.50327117434093      -0.27042108606793
H         2.24865602197938      -1.98233984867326      -0.64159718048621
H        -0.41842459376037       0.93600460939863      -2.84473399451645
H        -0.51708016863398       1.67208725490056      -1.24450589312235
H        -1.62900678994555       0.20257229232661       0.70029590719980
H        -2.21255981855080      -1.40349476152048       0.25904659995652
H         0.17074257994065       1.39294453451256       0.70635931817882
H         0.99419229812766       0.41454853913340       1.92521604758068
H        -2.52251921548355       0.30061909715556      -1.58146973495435
H        -1.54227520227851      -1.09063948503700      -2.07351245024479
H         2.66740347196269      -0.92059120320085       2.20578613054234
H         1.93692582174375      -2.46875981443460       1.75234066492123
H         2.12290160733237       2.58260461902079       1.40725111034821
H         3.19552006233983       1.20674885488073       1.14287805099695
H         2.46212940357937       2.03044924903425      -0.23576878574674
H         4.28628345395884      -2.82130829282585       2.35248825013742
H         4.10589904686882      -3.10153661603881       0.61223270944869
H         4.81726735740455      -1.58986894421667       1.19183818557437
N         4.82956696591037      -1.34478740212350      -1.83183970638384
S         5.77971230448267      -0.14300880238149      -1.40133831724245
S         3.81423991169279      -1.05775848556794      -3.01674603288781
F         4.69906933673610       0.87643143863356      -0.65771617645053
F         4.64506977094576      -1.39701632125869      -4.34958428791165
O         6.58422767725388      -0.60029741600371      -0.31817254044956
O         6.34966017902188       0.66054839406396      -2.42590831220170
O         3.37496462534417       0.29633661524868      -3.19187442361468
O         2.79988409570473      -2.07492724614646      -2.95997893943165
