31
C7H16F6NP optimized with ADF in AMS.
N         1.12240837676465      -0.17266600579221      -0.38168816259234
C         0.49464442167301       1.14604244866548      -0.80545940465040
C         0.06952207531268      -1.25983492311662      -0.37669995717239
C        -0.70345803125631       1.52109215390479       0.05073189337014
C        -1.13689139525377      -0.91714384496150       0.48326725851784
C        -1.75781569018564       0.41312916425864       0.05521741910602
C         1.75928370823422      -0.04175955699421       0.97450496177941
C         2.18077963092683      -0.52884870660867      -1.38741385100159
H         0.18855884355335       1.00151561579303      -1.85455776188272
H         1.30281757591765       1.89071975251714      -0.76665537044640
H         0.57120675010993      -2.17999848093542      -0.04219246104581
H        -0.23435985500720      -1.38983450418401      -1.42820956789436
H        -1.12006741954764       2.45429627978059      -0.36324665929286
H        -0.38197828563692       1.75861395189550       1.07869952803156
H        -0.85591578105289      -0.88836735226031       1.54929355091996
H        -1.86183383784869      -1.74102802155488       0.37562518689781
H        -2.59199220316612       0.67588240641229       0.72395959508552
H        -2.17986610683708       0.30592242194302      -0.96135889456963
H         0.98803561005924       0.18224797260201       1.71660842808947
H         2.25308955453070      -0.99287648063620       1.20938455276951
H         2.50942801206394       0.75664058937809       0.91956363871540
H         1.69041603875304      -0.66622552438962      -2.36033638752276
H         2.92507934171122       0.27613578883994      -1.43134758853288
H         2.66650725454005      -1.45808487958279      -1.06606651818794
P         5.09339490604789       1.81046460314756      -0.28195081053189
F         6.66131530132890       1.36176008173416      -0.32607960365633
F         5.43268942757149       3.29109527596176      -0.88567975643836
F         4.84485339204251       1.22408417011005      -1.82275264231365
F         3.43546903670742       2.23015139487202      -0.24556809869186
F         4.66634610043551       0.29996896260627       0.31187097372310
F         5.22823973800801       2.35974935499411       1.25908519711842
