54
C14H26F6N2O4S2 optimized with ADF in AMS.
N         0.36010023996660      -0.83403970632435       0.16417138008490
C         1.07396682508171      -1.85371874405851      -0.70978255854464
C        -0.18127405295447      -1.69950913244429       1.28471416484766
C         1.31243881165269       0.19816097782248       0.73902373609303
C         0.19842243914983      -3.10568916365567      -0.67912960239969
C        -0.64015177031134      -2.99526521753662       0.61997746527625
C        -0.75837469201756      -0.20817247657683      -0.64490223609422
C         2.10135763926519       0.98545832749884      -0.28615118828988
C        -1.53533773358176       0.88517460728134       0.05820916091144
C         3.04023566638086       1.95774042935618       0.44352984623002
C         4.12215459777359       2.53416403334475      -0.47399359382017
C         5.21524195500714       1.52283272261147      -0.82121857092549
C         6.26313476340738       2.09493467508809      -1.77073374353914
H         2.05429621472557      -2.02520654318265      -0.24314079346924
H         1.22611000044055      -1.42295585994935      -1.70696299322597
H        -0.95855786961279      -1.15084395837203       1.83118590947803
H         0.66868067268206      -1.87884019346438       1.95712084509619
H         2.01386744503384      -0.35778735460955       1.37660640527877
H         0.70930832226390       0.85001762466889       1.39007777826352
H         0.84595209959008      -3.99351106759251      -0.67437033689768
H        -0.45233269274573      -3.17503855135823      -1.56329475918724
H        -1.71748093911160      -2.97661941971499       0.39831932185560
H        -0.45874558127699      -3.83945495529940       1.29995360046549
H        -0.28457374394827       0.18000566452086      -1.55754507474954
H        -1.41786152222683      -1.03768748269739      -0.93757910808705
H         2.70730812152995       0.28534812961707      -0.88069884753684
H         1.44648646100854       1.55092527918045      -0.97320118002043
H        -2.36861299270265       1.18414188368785      -0.59628626463093
H        -1.97303871943503       0.55312204132235       1.01026645108420
H        -0.92136855959154       1.77792814854631       0.23918534401510
H         3.52885852521069       1.42239109232175       1.27742537118495
H         2.44078931778793       2.77165898674588       0.89015475359201
H         4.58711025687437       3.40390297410400       0.02426336871213
H         3.65916724552645       2.92226386977440      -1.40252932382008
H         5.69890614875310       1.18628805877404       0.11271110294485
H         4.77524921427808       0.61527408313162      -1.26772570731473
H         6.74763920892143       2.98410905517016      -1.33472017132577
H         7.04776514833845       1.35520533541380      -1.98800576409124
H         5.80668894201172       2.39871167986399      -2.72722496885193
N         5.94449334383866      -2.11815827478574       1.83889187081630
S         6.70636047644624      -3.12167326393803       0.79922052171669
S         4.38869136816801      -1.86617503068168       1.71499599269831
C         7.15909569739801      -1.99994258437863      -0.66771881692023
C         3.49075355982836      -3.41800946483125       2.41033188086691
O         7.99762923406238      -3.44158217009711       1.38093146804210
O         5.85183780158819      -4.15945640865506       0.23130480968991
O         3.85530227280203      -1.76923965005888       0.34530714625420
O         3.98850871389639      -0.81764692450478       2.65414485239635
F         8.13357705108091      -2.60488599694550      -1.38977429349252
F         7.62434994994516      -0.80203531687719      -0.24001152640887
F         6.10311945904574      -1.78183570953710      -1.48666914573993
F         2.41793387853948      -3.01231084316681       3.16394278187656
F         4.29217897189071      -4.16123289796537       3.18936264911247
F         2.99508350652461      -4.19545545468668       1.41422155389951
