61
C17H29F6N3O4S2 optimized with ForceField in AMS.
N         3.07825765385974       0.91307333718849       0.00044029871825
N         2.91734434313470      -1.29872898604866       0.17928681348193
C         1.48203152354485       2.77811753094160      -0.25922323359817
C         2.84607040061603       2.32756114223372       0.28560775142286
C         1.00828089938937      -2.62852882686143       1.01764590731010
C         2.50904366240754      -2.60790145936535       0.68668409510595
C         0.31752159792802       2.10273059567356       0.48201522083304
C         0.14039577919714      -2.31062151433908      -0.21071508889948
C        -1.03681797370219       2.54720655417708      -0.07902099243383
C        -1.34947155075107      -2.29529149298106       0.15056207414766
C         2.82873720774517      -0.12062848464077       0.82791006802524
C         3.34857848128267       0.37048456707671      -1.20412187682549
C         3.25624607390949      -1.00159652160540      -1.09137902708313
C        -2.18631393522166       1.88050452616857       0.68699549876858
C        -2.19420428415833      -1.80487965414933      -1.03266634918945
C        -3.53345232297752       2.19014178931281       0.04461220844978
C        -3.67412887653869      -1.73549893661639      -0.66877350871054
H         1.40035162371283       3.88038962830818      -0.14036655537000
H         1.42402827183011       2.54674235682154      -1.34547077020484
H         0.80201607919953      -1.89045325240179       1.82331844443802
H         0.74344628010283      -3.63625025666778       1.40492813772396
H         3.64986476958684       2.93248876513593      -0.18690348357333
H         2.89202410574654       2.50878358926072       1.38217655783942
H         3.09177809435023      -2.84091701774864       1.60367512025644
H         2.73108391907955      -3.39603006730466      -0.06612312338119
H         0.37219325754270       2.35619154106486       1.56360464532476
H         0.39455984095569       1.00031237055125       0.37406596581595
H         0.32202538252805      -3.07162677139865      -1.00128389846982
H         0.41927746821295      -1.31389069507696      -0.61485083168252
H        -1.13141572745936       3.65228120179061       0.00613931829527
H        -1.09429621057028       2.26752793152421      -1.15442775817758
H        -1.51111338224159      -1.62027577868800       1.01947878075561
H        -1.66839135240821      -3.32135986229633       0.43819018700813
H         2.50087850250972      -0.01288115027603       1.85452433003288
H         3.53500973495250       0.93150947174024      -2.11049531837088
H         3.35388744826778      -1.72196865590070      -1.89309166800310
H        -2.04446624362749       0.77944586520410       0.69985112977297
H        -2.19448247612289       2.24291949367467       1.73807715015478
H        -2.06634752981908      -2.49359309995654      -1.89612093234587
H        -1.85741382549300      -0.79041650705716      -1.34004719266235
H        -3.70311732260759       3.28718513342198       0.01698286259880
H        -3.56800666468421       1.78489847208052      -0.98935634817087
H        -4.34474220547984       1.71706075981982       0.63727139131293
H        -4.24986507368799      -1.35047017252308      -1.53686492290654
H        -3.83047832665283      -1.04948067865539       0.19082052319867
H        -4.05535516362732      -2.74544925982176      -0.40734892930856
N        -8.29100491878745       3.35216431499401      -0.54558811842235
S        -9.86721380205785       3.79578310995373      -0.60454916265282
S        -7.08776448221121       4.27914723399011      -1.16036968253191
C       -10.61019380088572       3.13044875715612      -2.08022670770079
C        -6.37883732834405       5.26032356505006       0.14625747592007
O       -10.58165083579446       3.23656556462486       0.59283298891653
O        -9.99464307335206       5.29423473073851      -0.61165389296515
O        -7.61386999876035       5.18681796424924      -2.23781870146911
O        -6.02393494359583       3.38678314980795      -1.73294346612038
F       -11.94615739743304       3.48073196111785      -2.12177097618166
F       -10.49803477448606       1.75303722200147      -2.07290527177573
F        -9.97004009150770       3.63519175106033      -3.19593637489267
F        -5.30622008859087       5.97871363037948      -0.34631621711004
F        -5.94710028194557       4.43290793484074       1.16536372961678
F        -7.32758010700920       6.13529092104528       0.64006318634477
