46
C12H26F6NP optimized with DFTB in AMS.
N        -0.55384058340413       0.49130524466263      -0.25224302463574
C        -1.02376678535739      -0.14981985683078      -1.52916410309773
C        -1.74809196112463       0.78235633881643       0.60710917152996
C         0.40714513955315      -0.38613578108216       0.49976691222270
C         0.09318629089661       1.79883643713686      -0.64370565772263
C        -1.84518872520801      -1.40778548470584      -1.29647087849938
C        -2.61702418456604      -0.44322730542777       0.87418506981718
C        -3.06502460126810      -1.09979078692019      -0.43088873193397
C         1.69458293484405      -0.72117843595220      -0.25020966158815
C         0.69657945918434       2.60997804498577       0.49782564610354
C         2.60761238092655      -1.55933249780611       0.65190180103243
C         1.26478650371459       3.90645059900276      -0.08368263643700
C         3.89720295932595      -1.92621745909610      -0.07987626464084
H        -0.14630776778319      -0.36007444802620      -2.13855501617441
H        -1.62612679107784       0.59877941365667      -2.04839237469191
H        -2.33335526437185       1.54436679911350       0.08544483728850
H        -1.38832400739119       1.19759939040851       1.55048877625762
H        -0.11751697576922      -1.31055149974828       0.74837975922011
H         0.63851062747913       0.12862448472732       1.43573740196352
H        -0.67672727867252       2.38328906902097      -1.15205633813149
H         0.86478207494183       1.56235140505891      -1.37376985598959
H        -1.24034629636187      -2.19196577154011      -0.83292960454743
H        -2.16547041548449      -1.77270675112456      -2.27528341882955
H        -3.48972603946900      -0.10421667692300       1.43906896021811
H        -2.08147170673766      -1.16575534357197       1.49590879225707
H        -3.73610891956120      -0.42304779554226      -0.96912208457808
H        -3.61228974721517      -2.01925227378481      -0.21069583068005
H         2.21887964308952       0.18844322564195      -0.54599890409251
H         1.46960307304521      -1.28415785509474      -1.15784105081035
H        -0.05542696921131       2.84839216434053       1.25616788319290
H         1.50471517679903       2.05460466968933       0.98126577423283
H         2.08485036321556      -2.47244180269193       0.95731569382690
H         2.84771857623320      -0.99152660856241       1.55754303707870
H         1.74671552087240       4.48401919878117       0.70426444773923
H         1.99786665999243       3.68066839539038      -0.85741174323841
H         0.46915287946070       4.50720317871992      -0.52413911130656
H         4.43655293183966      -1.02575781007852      -0.37419503879055
H         3.67452948260123      -2.50582157024690      -0.97595787391666
H         4.53763425371431      -2.52084597146809       0.57123617145123
P         1.40300326253102       1.51787125448584      -4.08888478617306
F         1.11875991559412       2.71639622953923      -5.14620662498842
F         2.93176623467842       1.33018743592278      -4.60805213986874
F         1.91017265413884       2.61563917773955      -2.94433149859410
F         1.65488386481620       0.29634693368760      -2.93812626025110
F        -0.15784726380953       1.68066872325616      -3.47767758990337
F         0.85520965135633       0.38676309924013      -5.13169719242076
