46
C14H30ClN optimized with ForceField in AMS.
N        -0.07717908659016       1.47326988978336      -0.00455762672474
C         0.48183701955004       2.41584506758753       1.01338545479468
C        -0.72931582130168       2.35270349040955      -1.02227299145094
C         1.02835493345728       0.69908122997910      -0.65710026738868
C        -1.09415408073913       0.58760116575740       0.65013068546798
C        -0.06335599740627       3.80041438938601       0.72363775939307
C        -0.28949513446241       3.77897478237215      -0.76009102950013
C         1.78327612296144      -0.26924520864895       0.28483409631789
C        -1.77424952623508      -0.43225672332439      -0.29439065150173
C         3.03457800587754      -0.82898522522624      -0.40546181604087
C        -2.87322596106062      -1.20236276107879       0.45089788982044
C         3.74528496000407      -1.86041529093922       0.47781620865877
C        -3.57077361289069      -2.21071383886060      -0.46878527604684
C         4.95777992195444      -2.45122146160314      -0.23544132341810
C        -4.64259065322214      -2.99178189908347       0.28596658945030
H         1.59236064221664       2.48924477027729       0.95519580246508
H         0.23944849311646       2.12856859240982       2.06266465366494
H        -1.84040309021722       2.34060240815601      -0.93784605730255
H        -0.48682500431474       2.06949688457028      -2.07253106770294
H         1.76628478367891       1.40963044515234      -1.09801223491250
H         0.63946635080912       0.11114832877173      -1.51780118518982
H        -1.89040525140560       1.21784093948195       1.11138410197282
H        -0.63561508760309       0.02826934854055       1.49563869622364
H         0.64832182713125       4.60079911035363       1.02078304101712
H        -1.03334308634629       3.94206731564152       1.25100603969340
H        -1.05950591855492       4.51795637337538      -1.07055249203215
H         0.66721389544306       3.98334554056740      -1.29104569273705
H         1.12123823351405      -1.11798189923376       0.55673418672016
H         2.09125173360459       0.24687467526929       1.21823515551107
H        -1.02919296924321      -1.16485478135539      -0.66756154990347
H        -2.22682558274018       0.08438185174261      -1.16657934262769
H         3.73517325781878       0.00572650735948      -0.62934737914550
H         2.74166175027839      -1.30835969851332      -1.36436493526564
H        -3.62743034357450      -0.48432648419801       0.84245995970660
H        -2.42016467115301      -1.74260624118007       1.31132633239012
H         3.04388378737440      -2.68478545106574       0.73203923764204
H         4.08084791966503      -1.37760266290436       1.42145931748890
H        -2.82432638535471      -2.92692094742669      -0.87622029305644
H        -4.04772061214280      -1.67478721067343      -1.31822224301976
H         5.45816276537463      -3.18656708773268       0.42905637973174
H         4.64231266253477      -2.97109822856263      -1.16529689046256
H         5.68383913594219      -1.65039105738469      -0.49115593924355
H        -5.13267974366942      -3.71147333865486      -0.40285311083373
H        -4.18738244804165      -3.55844284520660       1.12611528087684
H        -5.41489232907781      -2.30054820324011       0.68581151454151
Cl        0.84730223324022      -2.80801665004725      -3.14915026064170
