44
C14H23F3N2O2 optimized with ForceField in AMS.
N         0.21366125173949       2.32323091553851      -0.21925269939298
N        -1.85868258428268       1.51147232608305      -0.20103438413707
C         1.60592975840734       2.52060031867764      -0.62399743385262
C         2.53473945292710       1.51611763751922       0.07713280308212
C        -3.04334498937450       0.75045867042242      -0.59764797052614
C         2.11021146967107       0.06666284764549      -0.19789205875756
C        -3.07766654541044      -0.62207568677355       0.09120566097603
C        -0.74987538454474       1.71453923886389      -0.93935457934237
C        -0.30765427138983       2.52278917280581       1.00863815403467
C        -1.59345997386863       2.02057476932712       1.01947248688871
C         3.07593550035620      -0.94224031079100       0.42717514525292
C        -1.89646941099302      -1.50556724607746      -0.33455186742106
C         2.58753036973063      -2.37094567855810       0.19295065560496
C        -1.96347751007004      -2.88212034505162       0.31798592069195
H         1.92030296855730       3.55649231041680      -0.37353548158176
H         1.70144897362556       2.39832593424817      -1.72549810928250
H         3.57148088239290       1.67511802354433      -0.29159229735157
H         2.52541345629493       1.70687204861395       1.17262602940602
H        -3.95514386048896       1.32386616342660      -0.32450359824220
H        -3.05519633059361       0.60978136776960      -1.70094280383906
H         2.05545821084422      -0.10335905280954      -1.29604313793477
H         1.10650687157659      -0.09992103639325       0.24074828441554
H        -4.02873377976651      -1.12924839527298      -0.18140523897677
H        -3.06652928981261      -0.48407136928402       1.19466121227550
H        -0.61694817893131       1.35120757493577      -1.95137306950749
H         0.22640315562187       2.94835077420019       1.84858371094498
H        -2.26486444824130       1.98291256789243       1.86776219515612
H         3.15038872216881      -0.76363364724616       1.52209141248111
H         4.08577510023514      -0.82099412926749      -0.02013683005248
H        -1.89249090452913      -1.62705833816157      -1.43958398946499
H        -0.94572523655495      -1.02637345287911      -0.03139711317536
H         2.48323846222286      -2.57234888900573      -0.89491439403247
H         1.60314807297457      -2.52723424180780       0.68456668069051
H         3.31660210749469      -3.09075448024742       0.62016796121961
H        -1.96139264956873      -2.78473083788142       1.42470828957112
H        -1.07724989142754      -3.47897754625525       0.01379408947327
H        -2.88158667418299      -3.41716159741366      -0.00452179628257
C         7.37505246838416      -2.53142535724620      -2.18260993863412
O         8.06817894368703      -1.84422856516100      -2.91574102541229
O         7.77420149610397      -2.81003172426250      -1.06306114930591
C         6.03838717592882      -3.03087028925362      -2.64573513905103
F         6.01088759073685      -4.41160034670258      -2.58152541340493
F         5.79284590634173      -2.63511812547995      -3.94913293022622
F         5.04936954390771      -2.52016758254801      -1.82908243727686
