42
C10H22F2N2O4S2 optimized with DFTB in AMS.
N         0.40681925433457      -0.95747698977521       0.07345722822409
C         0.28438782759699      -2.04117426959427      -0.96031129868000
C        -0.90939037138997      -1.03862025187650       0.79130918360389
C        -1.17689737965637      -2.04145375900703      -1.40225232614845
C        -1.94712262824890      -1.31856451409285      -0.28778090968298
C         0.55959696050044       0.35970090279893      -0.62359939047329
C         1.51509890611258      -1.23540849325579       1.06059319090973
C         0.55917464519386       1.58210064231397       0.29524980361301
C         2.93998030394258      -0.88068934984530       0.63778874080628
C         0.93849441263651       2.82383950208501      -0.51155307685289
C         3.50048774109328      -1.65076143670367      -0.55553347726847
H         0.97797228199678      -1.85274770224513      -1.77772993858729
H         0.53882927955679      -2.98608654779146      -0.48115539888102
H        -0.84332578487617      -1.87685540924978       1.48580712432787
H        -1.08876361655167      -0.12142894313360       1.34968670178198
H        -1.30487125518551      -1.53121612360844      -2.35921643552053
H        -1.51976812023783      -3.07146256525649      -1.51206544900418
H        -2.74512740894371      -1.94231787920834       0.11763842056536
H        -2.39217879818626      -0.39113551568182      -0.65617244946022
H         1.49372564604864       0.31673704530123      -1.18729705342289
H        -0.26181042885738       0.44049989390423      -1.33937983764595
H         1.27041568939178      -0.66669790142993       1.96138871083465
H         1.45258037485558      -2.29875928705729       1.30133267460546
H        -0.43216288536823       1.73043064699306       0.73100909421706
H         1.27145736447484       1.45221758998597       1.11278707182339
H         3.55078762025566      -1.11912226368990       1.51497203464327
H         3.03715147765749       0.19505813224103       0.46425686238275
H         1.94264925868358       2.72094060401110      -0.92370562284767
H         0.23736096141507       2.97613275821620      -1.33259660946972
H         0.91508225113226       3.70109577807134       0.13373697700038
H         4.57125289796672      -1.45967556338568      -0.62619063131805
H         3.34686772971676      -2.72035080857963      -0.43033741305130
H         3.03823208124050      -1.33256223866157      -1.48985915607210
N         0.95956802473231      -6.03163542196624       1.23154332982632
S        -0.33906887557847      -5.14070113301188       1.34352190958252
S         2.23997929524118      -5.32874226394983       0.60890929436624
F        -0.80502574029552      -4.86958360453943      -0.21249534460202
F         2.64226179615594      -4.16876544420799       1.69854411184065
O        -1.39457292434929      -5.91577407473047       1.89436633707544
O        -0.14711947397401      -3.79700674689654       1.83302458722169
O         2.01937151647346      -4.56038096754637      -0.58622242739757
O         3.32605932059315      -6.24274178874364       0.64452499373457
