25
C9H13NO2 optimized with DFTB in AMS.
N         1.07077490040964      -0.94413410900866       0.53920976281179
C         1.32339543652899      -2.00897898118261       1.50637225313601
C         1.87427976567566       0.24258940336937       0.58457903458014
C         0.09182175852369      -1.09275497261040      -0.39909865507819
C         0.29769581638075      -1.94843160733467       2.63878208015136
C         1.14690818787411       1.42578275141995       0.03890841296649
C        -0.36528832236893      -0.04570549902131      -1.12498263089201
C         0.13191161807158       1.26458291430553      -0.82586657983170
H         1.26460827841092      -2.97535540163462       0.99477155922656
H         2.33006475514697      -1.88305856838436       1.90983728376903
H         2.25572212763591       0.40105458031065       1.60199785933039
H        -0.32209023091910      -2.09175636484378      -0.49019603586286
H        -0.71128918051564      -2.07153694621455       2.24522102031117
H         0.35713434277256      -0.98616877225008       3.14678379360087
H         0.49717035405914      -2.74173568632667       3.35821717735512
H         1.52384430519564       2.39885286755263       0.32610867678522
H        -1.14438678736482      -0.18104992347298      -1.86199804696661
H        -0.36388581579104       2.12269617360245      -1.26620239781457
C         5.30195527152464      -0.54497146849311      -0.72752080052724
C         4.17575442845112      -0.45987662989172       0.27767888165640
O         3.07781416837512       0.03612709921809      -0.27341861915200
O         4.27416055415234      -0.80793302325927       1.42700338686480
H         6.23643759239594      -0.76176236573055      -0.21663128148350
H         5.07677816273051      -1.34380104308946      -1.43285370175037
H         5.37669457844429       0.39126001427012      -1.27694483038632
