22
C8H12ClN optimized with DFTB in AMS.
N        -0.35967507186355       0.13929265781993      -0.18547578665132
C         1.01947524369296       0.16183890145510      -0.66965867747114
C         2.00764294404916      -0.34972861217185       0.38647859402545
C         3.43456833567913      -0.32525144090211      -0.15583122292834
C        -0.89431017265410       1.30459500328370       0.39225541839936
C        -0.98636847718804      -1.06708511609909      -0.02937813346085
C        -2.35180529189073       1.25219980781815       0.55550174085501
C        -2.27915072289767      -1.14284299656073       0.36370075927908
C        -2.99653380219898       0.07078612134884       0.60376641586737
H         1.07569633866974      -0.46155970481708      -1.56933356086165
H         1.26540541236578       1.19089504093269      -0.94863969933573
H         1.73847825794749      -1.37107952854218       0.67143027661309
H         1.93849844706555       0.27890228663226       1.27799822559682
H         3.52208299398244      -0.95910485933813      -1.03980250840065
H         4.12581768658838      -0.69141342217257       0.60308199684593
H         3.72378411841521       0.69112336946611      -0.42684257661033
H        -0.52812939544994       2.20076534958127      -0.10871945699537
H        -0.41181174966196      -1.94062636721840      -0.31614356613733
H        -2.85609525364762       2.19445300572703       0.72835819362817
H        -2.77509267787479      -2.10002661935818       0.44515968389575
H        -4.06537232962665       0.02507797843950       0.77827174333196
Cl       -0.13486249280183       1.54843341307572       2.15088094681473
