44
C10H20F6N2O4S2 optimized with DFTB in AMS.
N         1.15492193204478      -0.57057884495916       0.22001316575095
C        -0.27249568831982      -0.14283147957532       0.01757471684619
C         1.58545850666329      -1.56029840495494      -0.83857681427499
C         1.27777426034373      -1.23512871736443       1.56819924370468
C         2.03195582772292       0.65500993189025       0.12888802241997
C        -1.28990031421973      -1.27349721766014      -0.03051855045022
C         1.34856845386163      -1.11530283816752      -2.27295056713274
C         2.69980945728392      -1.54546813624742       2.00957007994654
C         1.81566107131245       1.69852740913624       1.21178865834155
H        -0.52254358967876       0.52901892840377       0.84127445565340
H        -0.30481901372917       0.42766185693377      -0.91300973384647
H         2.65307321185142      -1.73291035872584      -0.69705172064071
H         1.05398247940723      -2.49372527114789      -0.63935092913517
H         0.79458467592756      -0.57750302742750       2.29520277534205
H         0.70629204480850      -2.16407916926464       1.51246158200082
H         3.06589992896395       0.30732867842144       0.14728451155621
H         1.84982037197034       1.10481156931608      -0.84839463704081
H        -2.26971919629376      -0.82351349550771      -0.19102551423651
H        -1.09643695803892      -1.96393399976811      -0.84860704674347
H        -1.32204234096432      -1.83056194782381       0.90406389506291
H         1.78344150145006      -1.87912192811319      -2.91733968279171
H         0.28968471489305      -1.02819955100867      -2.51116412866534
H         1.84657355349974      -0.17315356170301      -2.48976534268186
H         2.63695384074138      -2.08659771871946       2.95397374526877
H         3.22410184115588      -2.17341600530445       1.29260040654069
H         3.28072847806753      -0.64153398010047       2.17467589143749
H         2.53240513947270       2.49785865777312       1.02264665097736
H         0.81475400013890       2.12705524078086       1.18056497561254
H         2.00369708412262       1.30619922873113       2.20934304763275
N         4.34136786352350      -0.43957328777965      -1.51945098840618
S         5.51974131810210      -1.31688964796585      -0.87688381335595
S         4.69650241840601       0.97413140465046      -2.19989160202693
C         6.17738945535037      -0.39479475515480       0.62157782853295
C         5.50162188649553       0.63536298297312      -3.85815749040144
O         4.84188744398542      -2.45259055806951      -0.28478580593025
O         6.65466000232953      -1.55670851860295      -1.72616258936013
O         5.62364741327403       1.78979033128265      -1.45679624550237
O         3.40965038476805       1.54771430373369      -2.54206700900655
F         6.49419989099263      -1.27490748515963       1.55967566187019
F         5.20430544018400       0.38401991218841       1.10909800707089
F         7.22810688509113       0.34253945540765       0.34959966575892
F         5.19260616159544       1.61694745511105      -4.68979533016600
F         5.03092337352292      -0.50181269177484      -4.34867260408291
F         6.80971258652032       0.55981582191721      -3.74555037664906
