49
C13H21F6N3O4S2 optimized with DFTB in AMS.
N        -1.25690434496158       0.81343643744753      -0.17265144437939
N        -2.69914647324911      -0.08216953418552       1.15078022514583
C         1.07720874436641       1.35216554833850      -0.81196986042343
C         1.72018519961178       0.21046721479274      -0.02121645379734
C        -0.33229694866745       0.99687552615319      -1.29010538781757
C         3.15444224442740       0.55487097298526       0.38784950181349
C         3.80607112807226      -0.61852084156908       1.12659418307709
C        -1.97003779968265      -0.28689472194323       0.05532218147690
C        -1.51977693320795       1.73055554107468       0.81141039530604
C        -2.42642084867752       1.16018658802537       1.64760173197205
C        -3.56366295028730      -1.07622925693276       1.78164185901263
C         5.23560934152009      -0.28588690991264       1.54816307008523
C        -4.91573698028832      -1.11955510370696       1.08267502851630
H         1.67331062507994       1.57105841502429      -1.70329314338259
H         1.04053528144215       2.26096407361636      -0.20370160819462
H         1.71983831721036      -0.69615056166066      -0.63330173513756
H         1.12223364773658       0.01107611317883       0.87199439258597
H        -0.73206167380417       1.79428405352448      -1.92508255783598
H        -0.32072372368717       0.06163090461760      -1.85578403929070
H         3.14604955571090       1.43970522014221       1.03415578050776
H         3.74105707736239       0.79956702842394      -0.50536780005815
H         3.81055186829819      -1.49897820622243       0.47665726942414
H         3.21349195270642      -0.86418768592521       2.01173485981528
H        -1.92792343092828      -1.19501783633875      -0.52173936705421
H        -1.04922440084709       2.69721094126502       0.83773289567175
H        -2.87088792486939       1.51830040523082       2.55918351172323
H        -3.05542715634762      -2.04165247607722       1.72061597035694
H        -3.66851912925472      -0.79845521336388       2.83224190502406
H         5.24721170142046       0.57687825848294       2.21626832613137
H         5.85156568533038      -0.05772692633178       0.67649221687135
H         5.67530753885908      -1.13515827462158       2.07125138956912
H        -5.41097607369155      -0.15091174828675       1.14776428861693
H        -5.54111166826295      -1.86925400329148       1.56471255059636
H        -4.79490645138305      -1.38361925843602       0.03224703784376
N        -0.50108018138040      -1.50449016768790       1.99922725555637
S         0.26050491489169      -2.70957105823600       1.26579863148189
S        -0.53479710039325      -1.42806488683234       3.60184556520404
C        -0.64685516475356      -4.30568081180225       1.65348162672185
C         1.05495220814624      -0.60804630213692       4.14889315267760
O        -0.01977042317646      -2.50322711211403      -0.14308710315491
O         1.63033326316229      -2.91657901286378       1.66048979301098
O        -0.60084618651934      -2.69412696691178       4.28304050616762
O        -1.53511063192768      -0.42581739087748       3.91099071136118
F        -0.60024328858825      -5.08955548342488       0.58792465068764
F        -1.92540054669465      -4.02114781406462       1.90295100913454
F        -0.13013689239186      -4.94066399860358       2.67904746375379
F         0.88809888898248      -0.09109483222405       5.35412814764927
F         1.33321599617312       0.38114239174809       3.30059833074259
F         2.06656769251272      -1.44936174588632       4.17462136943357
