31
C11H18ClN optimized with ADF in AMS.
N         2.49992918308609       0.10814637649757      -0.53070416269044
C        -1.33247027680953       0.09952629974433      -0.70476112527156
C         0.06207158183363       0.03560087317287      -0.09112126983020
C        -2.44200705456520      -0.03193753069999       0.33682468320160
C         1.16905052563451       0.16298672573640      -1.13468457007482
C        -3.84187617647861       0.03212676746624      -0.26892165763805
C        -4.94323047054079      -0.10174289088617       0.77885964155434
C         3.05436987536508      -1.10964125091729      -0.21484326915189
C         3.03350557899599       1.23936077792379       0.04090172421508
C         4.17999830363931      -1.21421011151735       0.53393251211588
C         4.15753002405867       1.20028458452049       0.79764158305047
C         4.91846555841696      -0.02947957454718       0.93689379691103
H        -1.44251680335426      -0.70314055183997      -1.45771318613727
H        -1.45355090116335       1.05570173464440      -1.24796276915257
H         0.18389931206961       0.84014763189258       0.65610201485439
H         0.19284377801891      -0.91792648634579       0.45200151140560
H        -2.32125009861180      -0.98797412623445       0.88045602543776
H        -2.33160268649914       0.76941214374705       1.09121188495135
H         1.08533347918084       1.11532143510240      -1.68329024451765
H         1.10200394276735      -0.64522049467268      -1.88121518675747
H        -3.95702762619287       0.98827388650882      -0.81180893733125
H        -3.94574312381199      -0.76813048793521      -1.02417608604862
H        -4.87330802306294       0.70378307853564       1.52729536480101
H        -5.94348463988722      -0.05253905423370       0.32230899961024
H        -4.86243811503049      -1.06192332898396       1.31328687697058
H         2.51789754545064      -1.97931012164858      -0.59231358742440
H         2.48192457565625       2.16080110466920      -0.14325848487907
H         4.57806515381044      -2.20215926200862       0.76102795659934
H         4.53843026596134       2.12332132446556       1.23305453177508
H         5.51676106704137      -0.12302080239369       1.84598397540461
Cl        6.55754413022120       0.12611072433729      -0.32400405205313
