45
C11H24F2N2O4S2 optimized with DFTB in AMS.
N        -0.30421487558521       0.22159794497760       0.15955990952116
C        -1.39609499956449       0.60461711489765      -0.79579750563063
C        -0.60318000309036      -1.13794131063681       0.72592099976666
C         0.96894521538642       0.13896738952849      -0.64741328875028
C        -0.18345020621300       1.21914864432786       1.28288717306304
C        -2.78863482372156       0.55483594040487      -0.17609042507638
C        -1.97208057097389      -1.21548381185809       1.38736935344027
C        -3.07690625073695      -0.82745413402039       0.40754579923920
C         2.20941038898252      -0.28123801610338       0.13692349342984
C         0.36069507280307       2.58172128249089       0.89079684784740
C         3.44868496762269      -0.13870188761498      -0.75574583310979
C         4.70228895995676      -0.58894490786973      -0.00788936628315
H        -1.34382660716807      -0.09582449924354      -1.63419737501355
H        -1.17521457004485       1.60798155993324      -1.16522527786896
H         0.17444373463554      -1.37623115101973       1.45281843472943
H        -0.54626505450986      -1.84797114248215      -0.10401198480306
H         1.11827802631672       1.12216667341563      -1.09983045795228
H         0.78017754890309      -0.57882783707527      -1.45090367101175
H        -1.17599064180008       1.33632534170814       1.71850762957113
H         0.46177385738216       0.76307126049093       2.03800608213813
H        -3.50548403772961       0.78238817745131      -0.96948916647259
H        -2.89665198181806       1.32081784880779       0.59569344416767
H        -2.00704266449157      -0.57646621100290       2.27291753735549
H        -2.11344145678805      -2.24726549926295       1.71853553166416
H        -4.04182617326865      -0.81649391305931       0.91918046442359
H        -3.12744654342325      -1.56367916214793      -0.40130969252546
H         2.11769747975048      -1.31924628529381       0.46310991011819
H         2.34111479734296       0.34269350171795       1.02043802970708
H         0.31237113978631       3.20402306532267       1.78475425029956
H         1.40265179567465       2.52832565154241       0.58283729864902
H        -0.22762393891422       3.05347298201191       0.10457822779391
H         3.55604769648685       0.90829877442738      -1.05964273808831
H         3.32055813268580      -0.74068632688217      -1.66250195385028
H         4.62820315375655      -1.64421605341697       0.25438865866744
H         4.82336832202345      -0.01405459104678       0.90974612184573
H         5.58094319125863      -0.44202669285901      -0.63542179768839
N         1.36729652929758       0.09038640600010       3.73107699076855
S         2.04525680584720       1.49843347103774       4.03094935702435
S         2.33141790003750      -1.16031845733478       3.52761955639685
F         2.77586875138093       1.83897512815764       2.59401654084814
F         2.52238134948822      -1.73505078961550       5.01501706183554
O         0.98907627163821       2.45985897625387       4.08373274244447
O         3.09766104969828       1.54448952959402       4.98397739259702
O         3.65252092306908      -0.90369531837868       3.05375881669478
O         1.55342248183004      -2.16496871247525       2.85692793977705
