52
C14H30F6NP optimized with ADF in AMS.
N        -0.39720572949984       1.40187207325135      -0.17972740136004
C         0.04548318526396       2.46008430785939       0.84801750993011
C        -1.07768504312645       2.20835599183040      -1.28728521173813
C         0.81504431650454       0.69521607427702      -0.75432162827573
C        -1.37703517156740       0.43124068629549       0.45311787712512
C        -0.17351573462231       3.82882233812196       0.19309978613501
C        -0.34621754035428       3.53520433794064      -1.30095131961694
C         1.55331145990641      -0.21753076868687       0.21331104244935
C        -1.92924004869066      -0.60840475264897      -0.50522338642966
C         2.88171234299250      -0.68956564514478      -0.38624394726222
C        -3.08697783968070      -1.36232339317458       0.15598105654981
C         3.63868727622856      -1.64311145837798       0.53902805991483
C        -3.69433876267552      -2.42068797166974      -0.76380025442213
C         4.96462456564779      -2.11236007783115      -0.05508731373149
C        -4.89604814852586      -3.12074120300729      -0.13403398306967
H         1.09664147006479       2.25901012805782       1.08754500901245
H        -0.57306086769390       2.33154196815957       1.74416042664419
H        -2.12281855562185       2.35245685652674      -0.97673446034694
H        -1.03083830765344       1.63721637783873      -2.22230923652542
H         1.48146173302311       1.49094577574681      -1.12135636818461
H         0.46221115115071       0.12205917047496      -1.62386364219796
H        -2.19002717861003       1.06161090387031       0.84082186085804
H        -0.85461635009279      -0.03481259572948       1.30188915372804
H         0.66163144768392       4.51306954347889       0.39991007221962
H        -1.10471911307232       4.26421911666129       0.58334601889037
H        -0.95845605723877       4.29993305936259      -1.80003811040172
H         0.62106514930964       3.46527274426442      -1.82642191894429
H         0.93234395988058      -1.09694640058119       0.45210536626266
H         1.75577274854350       0.30106820466917       1.16614518424772
H        -1.14824366558238      -1.32458514898518      -0.81995583511711
H        -2.31794661688272      -0.11431791014625      -1.41120078377604
H         3.51894273216462       0.18743871911875      -0.60599844233152
H         2.69553767935135      -1.19199549824913      -1.35399038717462
H        -3.86152643372568      -0.62844612914390       0.44027216957507
H        -2.73717001766302      -1.84176650151773       1.08955252053321
H         2.99902175694160      -2.51702653636336       0.75863413381800
H         3.82132584066059      -1.13931294876541       1.50594783595452
H        -2.92135744598496      -3.16634219400279      -1.02811629706608
H        -4.00316495945304      -1.93773960532689      -1.70885106659646
H         5.49147908045859      -2.79671731149063       0.62705798762642
H         4.80482545826372      -2.64461769087882      -1.00651680106875
H         5.63219276790432      -1.25904332011742      -0.25517949130479
H        -5.32116054878259      -3.87944407388540      -0.80894102928312
H        -4.61387019145142      -3.62396523085888       0.80455758773595
H        -5.68947381119117      -2.39421405868299       0.10073596291851
P        -4.35329523029823       3.32629055354832       0.80822397121482
F        -4.48778662348324       4.69091686623727       1.69982487312397
F        -3.42501184513916       4.14566640632273      -0.31958460013763
F        -2.91993640205915       2.94357385970649       1.62680175615331
F        -4.12955866550190       1.92604254407488      -0.10755376651971
F        -5.19433617731879       2.45675263898482       1.91375785000267
F        -5.70855701650122       3.66771408608600      -0.03547157654099
