47
C13H13F18N2P optimized with ADF in AMS.
N        -0.63179236082620      -1.75334053621329      -1.63679897238068
N        -1.80120486461283      -0.93178542742395      -3.27028651833073
C         0.51207226475074      -2.10910395962530      -0.78858055256844
C         0.66805554297943      -1.15145517361083       0.38799713561057
C        -0.56148828234902      -1.07931351391939      -2.78894231792502
C        -1.95332152617105      -2.04945084539789      -1.37575242997808
C        -2.68710957366467      -1.54024692069899      -2.40532522145020
C         0.94179892681574       0.28652520804707      -0.03917071175932
C        -2.13568581154344      -0.37659775396586      -4.57934397917340
H         1.39930297116190      -2.10125770524622      -1.43688583424548
H         0.35590842361722      -3.14746262123682      -0.46470101525105
H        -0.23363729481370      -1.19821998693278       1.02252533176271
H         1.50347291130609      -1.53164840123077       0.99933737484716
H         0.35027461113080      -0.77325925437850      -3.28399674682074
H        -2.25192176417130      -2.62218700519812      -0.50714440129124
H        -3.74769611228545      -1.59394602578751      -2.61609813624961
H         0.09908980059212       0.70461733823982      -0.61172088637304
H         1.84707527691045       0.34637608956237      -0.66408796793065
H         1.09600439495799       0.93165620164624       0.83775209645082
H        -1.21711335797700      -0.01502592679805      -5.05263633056533
H        -2.56177610056050      -1.17484575122728      -5.19920396536431
H        -2.84459577238104       0.45136165133027      -4.45307766980265
P        -0.04650887743917      -4.33763383991771      -5.36013111057400
F        -0.05300794179953      -3.60706173050822      -6.85483619681642
F        -0.22211889380651      -2.80692811997730      -4.64458606057937
F         0.12189719489642      -5.85327884109176      -6.00162427151227
C        -2.02359625367221      -4.48903014037391      -5.53224622029830
C         1.92783948362048      -4.10437766608865      -5.43974066507012
C        -0.06074961708214      -5.06011479963816      -3.47633024258168
C        -2.65763953029867      -4.27651460906778      -6.94550469921113
C         2.52862069302330      -2.68342169404240      -5.20274554253157
C         0.15765230284736      -6.57244818525859      -3.17172053841377
F        -2.70678423265153      -3.56771881678647      -4.73514445583032
F        -2.44151432848456      -5.73387360544876      -5.13371814719417
F         2.34273578119511      -4.45092818759505      -6.70496186076696
F         2.61686509708822      -4.92820896865302      -4.57672981235237
F        -1.26638547767207      -4.75343746652829      -2.86182732579676
F         0.89921215716918      -4.39354110934834      -2.72814072631352
F        -3.98601213897844      -4.59297005498891      -6.88459734289322
F        -2.09374520599548      -5.05235271819755      -7.88880918315515
F        -2.58470294965387      -2.97335920289226      -7.33296131252926
F         3.86639089766705      -2.70420573312607      -5.43766387426782
F         1.98221707961083      -1.74521885734250      -6.01001889682674
F         2.36610465293690      -2.26278946298057      -3.90687788291485
F         0.14462197233020      -6.75139654666895      -1.81077466671194
F         1.34151148420902      -7.02621344440896      -3.62784264868588
F        -0.82951046632615      -7.33161695490406      -3.68929155268366
