35
C9H20BF4N optimized with ForceField in AMS.
C         2.69872993014626       0.39128144641301       1.54100899725312
C         1.63918545049984       1.32069996747004       0.96904504998443
H         1.36272069385859      -0.83131644540636      -0.89572136996815
H         0.40490329600376      -1.66502648088571       0.37015702158235
H         3.18356856124984      -1.38159018293218       0.37327680755604
H         2.17699258979938      -1.68583560653141       1.84683213524247
H         2.65037465293955       0.39295044585633       2.65207590671071
H         3.71759170669394       0.70590992131383       1.22402388232106
H         1.35888504381496       2.10622244707746       1.70824078111026
H         2.09419006030861       1.84530297748679       0.09557278355347
H        -1.21845006030322      -0.43601599565010       1.50321264614919
C        -0.43906248953651       0.32848401057038       1.70999217218524
H         0.10882486852456      -0.01207869573499       2.61658455907633
H        -0.94652897757307       1.28809202998844       1.95374125502464
C        -0.20267207621839       1.17045569396158      -0.59961845896405
H        -0.33899703794870       2.24947387208443      -0.35432847695744
H         0.44680433125712       1.15392523929285      -1.50446932055331
H        -2.32041575434122       0.73999198502103      -0.14513063021397
H        -2.97885784709179      -2.10842431484624      -2.61752201348249
C        -1.63338935331806      -0.77124530797075      -1.56263311239656
H        -0.81766508296620      -0.90328064117573      -2.30596913465905
H        -1.50396981888413      -1.50715114169765      -0.74542689365297
C        -2.97108973961784      -1.06464619020444      -2.23946866576910
H        -3.12999435022770      -0.37715550387582      -3.09739353427099
N         0.47840637678634       0.49502206659701       0.55270441426325
C         1.08389592226753      -0.80663713597102       0.18182256600058
C         2.35773649863510      -0.98399892914335       1.00323682880630
H        -3.80501918828992      -0.94160173342677      -1.51545885646017
C        -1.60927085245584       0.65306906356568      -0.99284573889276
H        -1.98723383017158       1.34427356231848      -1.77877670147109
B         2.54742303690659      -4.89217275202881       0.50360427453119
F         1.31707592134090      -4.19875620279472       0.35882744741157
F         2.30349684029650      -6.17429114597139       1.06340786710094
F         3.40902539734761      -4.15814224300087       1.36124887356157
F         3.16001918506720      -5.03941441116904      -0.76911523311259
