40
C12H26ClN optimized with DFTB in AMS.
N        -0.76863489531851       0.28086050644120      -0.17938475884065
C        -1.25567431371414      -0.45557295177122      -1.39287028582333
C        -1.95075959924070       0.65384538759361       0.67431792388851
C         0.19086665644951      -0.55144420960262       0.63138716515489
C        -0.12048908630202       1.54694765026725      -0.67867032000634
C        -2.09702714925370      -1.68185367314278      -1.05577186229732
C        -2.81100400785632      -0.54322599959993       1.05013918480647
C        -3.29402928018508      -1.29365644666877      -0.18892519446521
C         1.52219518706051      -0.85567679304928      -0.04697432817685
C         0.48574512791976       2.44810747466044       0.39549923237435
C         2.36211675611268      -1.72668751639841       0.89700277453092
C         1.14805956822454       3.64973942101841      -0.27499072840078
C         3.72340939661177      -2.04819910019557       0.28530173463271
H        -0.38375619911021      -0.73723826025061      -1.98647630859892
H        -1.85732952856658       0.25164975493519      -1.97134899764402
H        -2.53911458174592       1.38076980537608       0.10718613037370
H        -1.55750025715248       1.11651477750944       1.58779297153502
H        -0.31594215932294      -1.48772943575768       0.86676445437333
H         0.35223576841503      -0.01057746623448       1.57257050659418
H        -0.89625892124345       2.09490106783040      -1.22223913063335
H         0.64689489656219       1.25020716772411      -1.39894932209786
H        -1.49209465407748      -2.43796885107438      -0.54911550160173
H        -2.44103488803122      -2.11181842901590      -2.00056377025310
H        -3.66865988126536      -0.16254154222204       1.61052195412580
H        -2.25891837764422      -1.21644917353262       1.71008847086030
H        -3.97170887847781      -0.65640564164339      -0.76687897433523
H        -3.84079364130126      -2.19235896850088       0.10640996895179
H         2.07201339088720       0.06495574533314      -0.25732148376317
H         1.37184065294074      -1.38623743351985      -0.99295667071927
H        -0.28613934158827       2.79679544233104       1.08277188187137
H         1.22825206242655       1.90660282174175       0.98262867217766
H         1.82545610850484      -2.65771866781582       1.10701841067948
H         2.50164742595634      -1.19776261160137       1.84441535834684
H         1.57541593367006       4.29770623612073       0.48900812148981
H         1.94672708150158       3.32845725353963      -0.94562806530136
H         0.41906702817428       4.22312774957919      -0.84975441278785
H         4.27876211883024      -1.13103560064806       0.08465687000062
H         3.60471277374804      -2.59503744278930      -0.65149852608323
H         4.30332076217847      -2.66133026577975       0.97486895370135
Cl       -0.20358886757664       1.20380077361319       3.29889305456045
