48
C14H28F3NO2 optimized with DFTB in AMS.
N        -0.29237705891684       0.00848608373794      -0.02252326918023
C        -1.11929083141628       0.59364563777453       1.10016412501738
C        -1.15771080170158      -0.75006635843924      -0.99498063045059
C         0.71545766748777      -0.93100668136586       0.58018089162996
C         0.38910062263081       1.12329392981201      -0.77382686579551
C        -2.06708006385656      -0.39017778705705       1.78521752361593
C        -2.31882056210704       0.04331581048322      -1.59707833531429
C         1.72537758081528      -1.53773401383932      -0.39326074176363
C         1.35573129848493       1.97544584873642       0.04413502645550
C        -2.67492245785065       0.27240622139214       3.02216832601692
C        -3.14397888628410      -0.88050891608613      -2.49107271546586
C         2.66201302861770      -2.47125598127592       0.37445680734278
C         1.71381242944367       3.21567967428782      -0.77610278985628
H        -1.67786549382839       1.43534739855714       0.68032495750201
H        -0.41401313008954       0.98263942875034       1.83715322470427
H        -1.53682598361692      -1.62933813055758      -0.46757394193643
H        -0.50293483442193      -1.09279915546739      -1.79994942726399
H         0.15534032348928      -1.73607884758693       1.06109819986861
H         1.24590965109245      -0.37333529187349       1.35586888505837
H        -0.40454024137457       1.76667303810359      -1.15445514116899
H         0.90645901553588       0.67429351505682      -1.62477109001241
H        -2.87520767807183      -0.67848386332440       1.10949686716637
H        -1.53676128754325      -1.29778108649719       2.09010366418344
H        -2.95809305888635       0.45485288744084      -0.81540068674525
H        -1.94540168968197       0.87937741765031      -2.19028773809907
H         1.21528325471379      -2.10754930849562      -1.17370813613876
H         2.31875883972712      -0.75629469762668      -0.87306137748367
H         0.88963098989818       2.30084914603890       0.97633586387796
H         2.26327606961147       1.41570292612426       0.29044364056120
H        -3.32294967182449      -0.43887049856844       3.53328938230090
H        -1.89351839275341       0.59399300999400       3.71138774955420
H        -3.26777215994650       1.13851200102084       2.73374817709803
H        -3.97298131818272      -0.31919267292297      -2.91972159077025
H        -2.53530839216075      -1.27865916229459      -3.30432664453385
H        -3.54887647615954      -1.71485548465824      -1.91637373976290
H         3.38567405049768      -2.90884649147535      -0.31212902845083
H         3.20191274586994      -1.92219130940431       1.14639890159141
H         2.09902602156022      -3.27649942674951       0.84734989273541
H         2.40178976696255       3.84446543078729      -0.21226557951824
H         2.18751682095334       2.93222091042105      -1.71657223131855
H         0.81150684403097       3.78753243228907      -0.99444318138093
C        -2.93481269147913       3.64908703436518      -0.61246240961222
O        -1.95805772028575       2.90074553359979      -0.77087889944454
O        -3.35252519286288       4.61811330563768      -1.19855954395436
C        -3.80419947816536       3.16223667811369       0.68858399126542
F        -4.93316854769187       3.82642141614940       0.93790459476318
F        -3.05033229611174       3.22402728758800       1.81689792027702
F        -4.14362723165109       1.84479461505395       0.56857095393536
