54
C14H20F18NP optimized with DFTB in AMS.
N         1.95000309985927      -0.20740738972884      -0.56376337800442
C         2.70636056283989      -1.49633021959641      -0.79376145440861
C         0.96379456979209       0.06063158230122      -1.66645684365673
C         2.94827500488164       0.92341692062111      -0.52766729850301
C         1.19815113897439      -0.31349026243184       0.73829367433997
C         3.30413580975203      -1.65757211078197      -2.18258359724330
C        -0.05454898271558      -1.04407623793265      -1.90885581015576
C         2.37211074782667       2.29686047646460      -0.22899135015476
C         2.06482063530779      -0.46541908034382       1.97888439825964
H         3.51237467457267      -1.51358874177250      -0.06028715735393
H         2.01863074027666      -2.31757689719816      -0.58083517210297
H         0.43730960609543       0.98102282069359      -1.40538738463380
H         1.54296454191652       0.24187831741145      -2.57430331182438
H         3.69328247433259       0.66436342389135       0.22257220086644
H         3.44463695568178       0.93808319802374      -1.49880617990986
H         0.57608975338126       0.58098840339553       0.82192926530800
H         0.54011370395508      -1.18057574424775       0.65076984777738
H         3.86886196699293      -2.58906227433395      -2.17671891052135
H         2.54918986638035      -1.71998468832556      -2.96425679945932
H         3.99749554459142      -0.85302490548825      -2.41664538150050
H        -0.65868933844336      -0.74837735667423      -2.76666398290060
H         0.41863112524378      -1.99590632846348      -2.13946964445693
H        -0.71917699775937      -1.17625448654186      -1.05695617848924
H         3.21631778825855       2.98396142849314      -0.17393855791384
H         1.70589865052250       2.64644307879652      -1.01646523740229
H         1.84927388201823       2.32769007387839       0.72491517349994
H         1.39701644265793      -0.49540187710753       2.83961711058498
H         2.63620093241944      -1.39021510512786       1.95766320643026
H         2.75040492950316       0.36867871857046       2.10860441965191
P         6.97004313186578      -0.73806665659800       0.13491419935166
F         7.71581500396294      -0.89108554457550      -1.35325991056398
F         5.48201119407374      -0.39709984603555      -0.67528556988771
F         8.36968513449252      -1.06643427690090       0.97499667874477
C         6.59339575596732      -2.66081204868993       0.04374734963217
C         7.49070637224045       1.14844957665351       0.03226274410635
C         5.90007885212580      -0.53311953731908       1.83143735271527
C         7.42547018866926      -3.52508910846308      -0.94187742280861
C         6.70333138297601       2.07633806204681      -0.93083157339198
C         6.51568486505118      -0.59769897805905       3.25313496427939
F         5.29970567754271      -2.90941194992377      -0.28434786374904
F         6.78599238756694      -3.17844436992791       1.26842461073625
F         8.77171248624086       1.19764418270820      -0.36181557195512
F         7.43285127539753       1.72863620793603       1.24534252221749
F         4.92024566808452      -1.47501928251032       1.81744783752674
F         5.23638907620764       0.65194488746841       1.76223615960421
F         7.20423704165980      -4.82098259311814      -0.69866849328561
F         8.72718630597555      -3.30622358312430      -0.83023268177253
F         7.05304663860786      -3.28862369998004      -2.19972154336654
F         7.30457709829408       3.25832430077050      -1.04571935127361
F         6.58125643705213       1.55926033606690      -2.14844861519930
F         5.46368163194727       2.30751236663534      -0.46447834572678
F         5.56234722912247      -0.34361323852818       4.16060646678378
F         7.48139584391676       0.29604925950404       3.41816961044258
F         7.00797267784315      -1.80250133458043       3.51180352221726
