49
C15H31NO2 optimized with DFTB in AMS.
N        -0.14433328427218      -0.11367157685786       0.30729511481430
C        -1.58341768774563       0.11880615640586      -0.03951325125417
C         0.07725422398668      -1.58889926956949       0.51830247937202
C         0.66272466067707       0.32696559096952      -0.88695113282045
C         0.27453614752766       0.63168661037816       1.54516836346109
C        -2.53919988211117      -0.41889276580764       1.01862253029527
C        -0.87501935610017      -2.20543181647583       1.53297844896517
C        -2.33594584704693      -1.92250061844220       1.19597983247824
C         2.17683983994814       0.19297608300724      -0.73895292077777
C         0.08589203974108       2.13716048743999       1.48340843944285
C         2.85432456635270       0.64173306867147      -2.03760558029383
C         4.37620760025600       0.51146494031322      -1.92212343686665
C         5.07245331237915       0.96090991428103      -3.21009136267494
C         6.59003279927124       0.82341307547854      -3.09832867310331
H        -1.76659572683112      -0.38921288226884      -0.99127915103614
H        -1.72698835109340       1.19093846113720      -0.18741681216619
H         1.10810138944986      -1.70196483549589       0.87102771587714
H        -0.03996587284322      -2.06803770621130      -0.45838793751199
H         0.39513975951075       1.36789155605160      -1.08868535228925
H         0.32082044267059      -0.27821668728320      -1.73209254821688
H        -0.28142512215514       0.21644146980462       2.38451014639872
H         1.32573539982112       0.38050016355778       1.70434840924065
H        -3.55797147092943      -0.21169571027982       0.67934687083890
H        -2.39143958802764       0.09909446613119       1.96923223811206
H        -0.63189013986776      -1.84074764046087       2.53400143456346
H        -0.69378219285038      -3.28325403576408       1.52553576410251
H        -2.97958535891196      -2.28886306347372       1.99913507698774
H        -2.61701559366373      -2.43885415911619       0.27117613057022
H         2.54002672322795       0.80376408893660       0.08891209424141
H         2.45096940446982      -0.84022581411156      -0.52144396031732
H         0.65269993462275       2.59070502249760       0.67139176022273
H        -0.96187092814542       2.42159834419613       1.38708565846309
H         0.46031866398251       2.54348324837619       2.42300219072494
H         2.58904834667303       1.68356434069590      -2.25129996008642
H         2.49553792334784       0.02817272174318      -2.87190812309907
H         4.63479952395728      -0.53088066449442      -1.70975836340451
H         4.72915718666296       1.12006023366706      -1.08327892290282
H         4.71316518005386       0.35554934526364      -4.04962351770072
H         4.81584424358451       2.00555175456394      -3.41818590740004
H         6.86659986185391      -0.21557310049653      -2.91437167942304
H         7.06517744325180       1.15124247229445      -4.02334084890589
H         6.96939928904451       1.43344291280237      -2.27742969911877
C         3.49984435093167      -1.95344284306713       3.93113673694751
C         2.40786173824658      -1.38954074258271       2.99372928818778
O         2.77487774036454      -1.09797078579680       1.82822451454292
O         1.26085102016056      -1.26057450663869       3.46272420429973
H         4.09100967692453      -2.69648073561291       3.39842681676892
H         4.15525109511506      -1.13497804781609       4.22777442653659
H         3.04819382202753      -2.39493489064066       4.81725945231425
