25
C5H9F2N3O4S2 optimized with ForceField in AMS.
N         1.11159252612714       0.00891371348602       0.00530462163694
N        -1.10942172753308       0.01567493434981      -0.00493298363077
C        -0.00131269061158      -0.74817141861001       0.00139277212583
C         0.69559983986130       1.29089067935285       0.00228148816019
C        -0.68559362671409       1.29510352541036      -0.00412223910622
C         2.49016971538979      -0.46165869409453       0.01233030011075
C        -2.49065239849506      -0.44698939425718      -0.01101677443376
H        -0.00510737179589      -1.82909268794772       0.00549716089281
H         1.34550885309824       2.15631094185176       0.00491094058348
H        -1.33011946245530       2.16450442636233      -0.00725998226161
H         2.52019927451623      -1.57263213025813       0.01016393399332
H         3.01667852065636      -0.08714601764561      -0.89034871750195
H         3.00621624515785      -0.09059789006591       0.92246635523967
H        -3.01456239744479      -0.06861854307977       0.89159058421161
H        -3.00477296553772      -0.07382141662998      -0.92130625407765
H        -2.52705134674721      -1.55785260040777      -0.00834161231340
N        -1.91767811834365      -4.70891282808320      -1.99036652469493
S        -0.28664992271050      -4.83048814697156      -1.95029684701588
S        -2.79225541276289      -5.44523037244532      -3.16075745936552
F         0.36618533519937      -3.84409599057066      -3.13556422248466
F        -2.84291670903167      -7.09098466803696      -2.85575204911466
O         0.21923896256962      -4.39825805220538      -0.60389918889485
O         0.12920952601489      -6.25059483421605      -2.21318001860725
O        -2.15073762985087      -5.21748964673614      -4.50079123244589
O        -4.19003118565650      -4.89481743245127      -3.16824816820560
