40
C10H22F6NP optimized with ADF in AMS.
N        -1.11161557248305       0.70384239334998       0.03831760388736
C        -2.20488576741943       0.90609504880661      -1.01087586114094
C        -1.01744397239404       2.05821860443680       0.76349530591008
C         0.19660337791612       0.40210115424924      -0.66314620312910
C        -2.09601368381999       2.36716990090892      -1.40268818022881
C        -1.84333735559234       3.05748067078149      -0.05671038088212
C        -1.49907240126991      -0.38545928225054       1.02214098431880
C         1.36418660103332       0.07927171195844       0.25662977803777
C        -1.71783470451653      -1.73843847062775       0.37918940598605
C         2.68032401797899       0.05154745492469      -0.52666791939499
C         3.87034268125263      -0.30968719531801       0.35902373097893
H        -3.16448562261563       0.71373869520710      -0.51054613289040
H        -2.04925059285834       0.18815739342100      -1.82605670915496
H        -1.42546581648538       1.92055479099116       1.77153605175126
H         0.04529771230435       2.32014485637219       0.82640689664480
H         0.00428297963543      -0.43766958718545      -1.34628694826515
H         0.41925647541461       1.28853216083718      -1.27705828303381
H        -1.27576707779906       2.53912095679294      -2.11916703243876
H        -3.03544138021732       2.70439711248437      -1.86315679857568
H        -2.80506026679276       3.22230778541619       0.44907178573262
H        -1.32178684145699       4.01902840321953      -0.16243734415847
H        -0.70070717850085      -0.41288017493099       1.77780934224376
H        -2.42623817851371      -0.02724131555084       1.49298585028617
H         1.44515809724986       0.82404622889247       1.06728291363680
H         1.21104888973602      -0.90154388221965       0.73738116367877
H        -1.98906987797369      -2.44386842384585       1.17858646380963
H        -0.82255458974660      -2.13229918300019      -0.12490825087055
H        -2.56242961756866      -1.71620970431962      -0.32368390338040
H         2.59850504790787      -0.67488527233724      -1.35559749096832
H         2.84799755219042       1.04003248025072      -0.99163131819044
H         3.73757425661710      -1.30419296176518       0.81374201059017
H         3.99158145067962       0.41992224305257       1.17563489477880
H         4.80557741726716      -0.32591351291575      -0.21915481219578
P        -5.31259158354362       1.23219312827169       1.48495382659145
F        -6.77583439723977       0.82441423982692       0.88781740137754
F        -4.93792501772616       2.02802634672277       0.06002294924497
F        -5.88640615963897       2.62640873667854       2.11769134655301
F        -3.76396076304643       1.62467092211859       2.04941310248725
F        -5.59368065698899       0.42104203026040       2.87945392477346
F        -4.64430787017526      -0.16556519966547       0.81766929149921
