40
C10H22F6NP optimized with ForceField in AMS.
N        -0.56048341881204       0.30877867225444       0.14874872066118
C        -1.55773936406361       1.24244568764941      -0.46642902392267
C        -0.89502741129085      -1.10554736550059      -0.20134799130819
C         0.77861828913459       0.67198375669780      -0.42678852928712
C        -3.02690174472893       0.89474160885882      -0.16115762757853
C        -2.34314578306556      -1.49938669417749       0.13701011874420
C        -3.33675310745679      -0.55307119234554      -0.52856942512521
C        -0.53360957929900       0.49883036048688       1.62579027710976
C         1.98342192439410      -0.15177971293111       0.09458408699030
C         3.28872300758774       0.32624215566679      -0.55592108148015
C         4.48744713855265      -0.47093521428664      -0.04677401761185
H        -1.45185932951358       1.24499837417039      -1.57627376809374
H        -1.37307788729760       2.28831369796079      -0.13025631981848
H        -0.23371062829538      -1.81292618413211       0.33997609139917
H        -0.73707843121298      -1.28335153294873      -1.28999022682063
H         0.99382303282063       1.74816156203789      -0.22864757393346
H         0.75644631335792       0.56230127503286      -1.53646188351970
H        -3.68355962399045       1.56351797128941      -0.75861684179240
H        -3.27118950298700       1.08149434871190       0.90491289426785
H        -2.50003633921443      -1.50588586786036       1.23633246523673
H        -2.52987383063757      -2.53309563404418      -0.22657345806118
H        -4.36719676898967      -0.80555914210943      -0.19657547289509
H        -3.29081391321425      -0.67775208737716      -1.63312520791164
H        -1.53829690168698       0.41184773132904       2.08219268309485
H         0.08895819770354      -0.27229719843863       2.12686856849866
H        -0.13710174156686       1.50334278517978       1.89392028630174
H         1.85187452384506      -1.22622325383967      -0.14751124207065
H         2.08755424380199      -0.03520839219177       1.19248151061109
H         3.45104503350906       1.40172137482973      -0.32486263919582
H         3.22338796700275       0.20991153364781      -1.65970189192919
H         4.36753215155342      -1.54844984575585      -0.29016455924050
H         4.59112266321565      -0.35334920246600       1.05328933355476
H         5.41549505086426      -0.09967598536510      -0.53082985588850
P         0.19206474393593      -5.01184025930098       1.71671624625282
F         0.89229783097522      -6.51560811030732       1.26987174678028
F        -1.15744989998850      -5.29702815199296       0.69242997302191
F        -0.57254604776508      -5.84411134082168       3.01024147647516
F        -0.53639667424554      -3.55987931761017       2.27440337663212
F         1.56153207518727      -4.66184064800527       2.69285024027765
F         0.96783234658091      -4.22065667089501       0.40372166777448
