68
C18H36F6N2O4S2 optimized with DFTB in AMS.
N         0.59100922871088       0.03401930541071       0.00245204355106
C         1.27871062260563      -1.10886633173962       0.70718075278853
C        -0.05801319552193       0.91722224035539       1.03921859769413
C        -0.42147175492825      -0.53478746244388      -0.95352322647644
C         1.56886424285767       0.86872137852910      -0.78942980633494
C         2.44065057727799      -0.71274430269422       1.61295278212093
C        -0.89480702855404       2.06633917970135       0.48199544228414
C        -1.60043149488260      -1.26292862520469      -0.31093431695865
C         2.49607289664347       0.10096508204867      -1.72687661997262
C         3.01197339798992      -1.95886383180648       2.29849710572551
C        -1.54999724276196       2.82199146482608       1.64629299169157
C        -2.52133751068846      -1.80034773795461      -1.41442332455740
C         3.23517403475062       1.11148700605884      -2.61622437176745
C         4.22219445931851      -1.58239796616986       3.15113337463569
C        -2.32610214991921       4.03418064031857       1.13830013791666
C        -3.72254070993888      -2.53088109557354      -0.81851172647886
C         4.31168772415930       0.41989358611297      -3.44800334349132
H         1.62899282726880      -1.79532616972232      -0.06774793137982
H         0.51323399948959      -1.61908762690445       1.29706198937681
H         0.74558242086473       1.33145473361775       1.65030312078691
H        -0.67233647889276       0.27294648927708       1.67261793663549
H         0.11572089425816      -1.22561284790943      -1.60734981406236
H        -0.78917556576579       0.29265064821327      -1.56453920857654
H         2.16516084682290       1.42494026864355      -0.06209761268566
H         0.97382702264141       1.58122641708341      -1.36401978490990
H         2.11611579570907      -0.00152938566008       2.37501002441856
H         3.23273301187927      -0.24205474956924       1.03149490932563
H        -1.67399322422518       1.69892834465267      -0.19155318903717
H        -0.26025796010086       2.75829227436710      -0.07584139978276
H        -2.17105756183904      -0.58624491094872       0.32926503081957
H        -1.25195801279340      -2.09798595634144       0.30203116555177
H         1.93961619426448      -0.59926409481262      -2.35702966866117
H         3.23166434255273      -0.46494397922972      -1.15090360310605
H         3.31073921916288      -2.68944006077255       1.53888303323166
H         2.24329104303928      -2.42209779037617       2.92697116843550
H        -0.77481509185468       3.15384314607169       2.34161906499766
H        -2.22428183725405       2.14724145947980       2.18456093704371
H        -1.95797122720606      -2.48440186655437      -2.05748255586808
H        -2.86962006116129      -0.96723010533838      -2.03357459449970
H         3.70149677474778       1.87351625565473      -1.98673031762788
H         2.51603137456546       1.60949610208260      -3.27531179232775
H         3.93711755253300      -0.86497929502463       3.92104900959990
H         4.99774843546953      -1.13378769896914       2.53008825792238
H         4.62890098553821      -2.47088567545160       3.63358854305082
H        -3.10638345167239       3.72942082045047       0.43892077797043
H        -1.65451856197873       4.72834962940167       0.63246902824382
H        -2.79175262298233       4.55092653201011       1.97705900200146
H        -4.30583133245064      -1.85758591072251      -0.18950534884899
H        -3.39428645347966      -3.37643822319581      -0.21307723226785
H        -4.36282414264744      -2.90270928600262      -1.61792122511587
H         3.87521982410253      -0.35327941982145      -4.08260833415208
H         5.05392794143018      -0.04012311581943      -2.79509279628449
H         4.81237746833144       1.15100519947044      -4.08211967330808
N         3.31280596118000       2.20747219517813       1.50094477578658
S         4.70524304469627       2.29240133392771       0.69453883702625
S         2.71708862559745       3.56336708935115       2.11547759402830
C         6.08942321003645       2.54362388898798       1.93493231875999
C         2.12635723532288       4.62676450208351       0.68033086312402
O         4.92530191697452       0.95461787337440       0.18449871845220
O         4.79066671749738       3.38872196208126      -0.23982926424238
O         3.64634637757797       4.37832003551306       2.84956236423359
O         1.47935666518280       3.17154538043237       2.75568184905257
F         7.16863108254285       1.91822900235017       1.49239648213545
F         5.73935028801297       2.01563444897389       3.09731982644971
F         6.36433654898043       3.81961605617755       2.09160670659321
F         0.99071915239522       5.22123763851961       1.02488014043229
F         1.86308419221190       3.83992251818042      -0.36998025513422
F         2.99999435070510       5.54008066466435       0.32754243412203
