44
C12H26BF4N optimized with ForceField in AMS.
N        -1.89343953025150       0.13624219245553      -0.05569877604262
C        -2.11346576570911      -1.06963977742431      -0.91161808678925
C        -3.01014053100625       0.11370197333709       0.93978950874066
C        -0.58434291954207       0.02891748974818       0.66701048632051
C        -3.49142595743875      -1.62339212060763      -0.60385192822420
C        -3.72098623509183      -1.22141613589823       0.82583618930618
C        -1.97997585763178       1.37016986883165      -0.90269782116473
C         0.66483937915207       0.03152668399351      -0.24813029352795
C        -1.75324606022830       2.68887024790043      -0.13983389307227
C         1.93674851110396      -0.18415772334661       0.58134091776734
C         3.18799461518743      -0.20586560129658      -0.30481574465612
C         4.45709408434150      -0.36351192320218       0.54197360889526
C         5.70622490441442      -0.40032945486208      -0.33280801001802
H        -1.38561980596850      -1.88364621599641      -0.68862790253609
H        -2.02358615599134      -0.85828541113139      -2.00210577447940
H        -3.77240596540382       0.90145948890050       0.73841619661249
H        -2.66887277015403       0.27188294540404       1.98877653756959
H        -0.57170099777757      -0.90824884422881       1.27068941562215
H        -0.47909140919579       0.85539164124070       1.40437254241672
H        -3.53447689240985      -2.72737739798152      -0.73070477780194
H        -4.24894115643193      -1.13924823937982      -1.25938074362829
H        -4.80514962044130      -1.13736589679504       1.05867211279034
H        -3.24649058557003      -1.96179945275465       1.50783871840940
H        -1.25218879058721       1.32742350304703      -1.74172438208391
H        -2.98146651185379       1.42552867574523      -1.38743464539311
H         0.59229725751097      -0.76995359413688      -1.01295879493045
H         0.75542715265128       1.00610133693001      -0.77076497866193
H        -1.96932049586869       3.54090881198287      -0.81776187041321
H        -2.42183724582959       2.77524607742498       0.74065709205746
H        -0.69891478872961       2.78603225596627       0.18905962068594
H         1.86272849077445      -1.14785314143760       1.13248802290925
H         2.02548355155744       0.63971822104172       1.32177366760909
H         3.24849586901292       0.74261770640242      -0.88296128939452
H         3.11510010126664      -1.05346937998217      -1.02152341949978
H         4.54326168304472       0.48869960912046       1.25011447495656
H         4.40217616350262      -1.30496552202788       1.13112695025233
H         5.79614345943307       0.54022290570896      -0.91747577008854
H         6.60641343152509      -0.50623022799777       0.30912697456917
H         5.66384308682737      -1.26398279872125      -1.03040145587768
B         4.00604641562430       2.45599144327288       4.24469603842065
F         5.02840060601645       3.12764718691386       3.52291600376196
F         3.11620397494050       3.41014967119889       4.80554682768257
F         4.58876549211767       1.68276619986391       5.28355446537107
F         3.28930360540774       1.60234079027773       3.36727736825733
