38
C10H22BF4N optimized with ADF in AMS.
N         0.34381222974795       0.28498699844925      -0.49461690723169
C        -0.95579361793109       0.83754866006990      -1.04620602625997
C         0.01897394247802      -0.80031980112201       0.52868821589922
C         1.10084924329584      -0.33775713688317      -1.66015627060771
C        -1.89444275749429       1.35360553516046       0.03237774594997
C        -0.91595176601194      -0.31555613427184       1.62012536119653
C        -2.20994300893627       0.26180930541277       1.05386427871029
C         1.16192281226867       1.38732824849370       0.10779992581569
C         2.48563081696409      -0.89826124720977      -1.33794113523016
C         3.64717376210500       0.00680902836980      -1.75554866607893
C         4.99489789310030      -0.62178424313394      -1.41478384647385
H        -1.42836176854759       0.00599818718805      -1.59473664450299
H        -0.68501863627480       1.62256267988945      -1.76897193181295
H         0.96772065542875      -1.15468030315126       0.95704975491413
H        -0.44769269652979      -1.60850279249063      -0.05942826331524
H         1.16497292431818       0.45495381428454      -2.42459261754147
H         0.42675691187152      -1.11997949459406      -2.04109550319769
H        -2.81050717055757       1.70415250530636      -0.47214189417939
H        -1.45808390439731       2.23440873057261       0.53209330684579
H        -0.38720188172689       0.40623000620674       2.26185194334796
H        -1.11682455993285      -1.18621826908518       2.26633162467311
H        -2.84065047495886       0.66639602367414       1.86123674137662
H        -2.79231340521384      -0.53866361872779       0.56006147095816
H         0.62634890222831       1.81680174458769       0.95836509899274
H         2.11370087359359       0.98158989707507       0.47455155721140
H         1.32199273417461       2.14532537970293      -0.67027901543286
H         2.57792792659774      -1.86055371947561      -1.87224556769394
H         2.58339830228559      -1.14805474265754      -0.26876322148345
H         3.57096214733445       0.97955011311634      -1.24198568806150
H         3.58010462499977       0.20630164928003      -2.84196581116485
H         5.10811687316292      -1.60399885877547      -1.90212622583853
H         5.07840120418856      -0.75840203724599      -0.32637735601924
H         5.82470791385378       0.01994426385432      -1.74649976861123
B         3.05887470194588      -0.45030286127781       2.50011043645784
F         2.65167471274638      -1.70092871379406       1.90373909449349
F         1.87505316610935       0.26474273949357       2.87405957306670
F         3.72870068706155       0.31170872867586       1.47719688282219
F         3.89260761205228      -0.66690630716747       3.59185583300579
