61
C17H24F18NP optimized with ADF in AMS.
N        -0.41449871542752      -0.38673626610055       1.13758410917685
C        -1.32738307819731      -1.23418761225881       0.27563008695238
C        -0.97241297755386      -0.59507812568556       2.54513498669727
C         1.01278825235025      -0.91406759852471       1.09721506431360
C        -1.54226493276170      -2.49754873203857       1.09124999082693
C        -1.61094119801036      -1.99480624078440       2.55072109795655
C        -0.48933411956437       1.06388109408289       0.72741461136151
C         1.67497202151954      -0.87881419829392      -0.27016927015550
C         0.42842987409471       1.98664317411334       1.51251531292804
C         3.20017736236588      -0.93532351634909      -0.12366342955765
C         0.12893652557445       3.44527674035967       1.17085333049353
C         3.90242169611445      -0.99373833354696      -1.47596202455885
H        -2.26248499801685      -0.66164647126049       0.16377463177145
H        -0.86540662070090      -1.37626268440362      -0.70970411391774
H        -0.15126150810834      -0.49014748717089       3.26244331221853
H        -1.71343013439444       0.20061520000589       2.70632481391187
H         0.98130922028325      -1.92876445413177       1.50652741275206
H         1.56878122517328      -0.31718811218261       1.82626852402475
H        -2.45846099856237      -3.01789302087908       0.77787701431910
H        -0.70508923765436      -3.19882813920365       0.95850923211476
H        -1.07190232537487      -2.66573659500024       3.23071100435466
H        -2.65328775831929      -1.91979683882091       2.89329161496914
H        -0.26602414947364       1.11000313565469      -0.34884072134501
H        -1.54305215306317       1.35580943125913       0.86293793460843
H         1.33997396447700      -1.73093030511820      -0.88623567527382
H         1.41585528655235       0.04174919196318      -0.82121493462107
H         0.30032432590960       1.82135888524497       2.59429388903388
H         1.48110011635321       1.76460667949441       1.27878491109078
H         3.53567721028119      -0.04761819366679       0.44062036970418
H         3.47536486052499      -1.80751893950347       0.48633045532911
H         0.27239852125833       3.64304101081475       0.09729604705660
H        -0.90692037888363       3.71221478330481       1.43214771514002
H         0.80000227643408       4.11461365784081       1.72774389756134
H         4.99462641473720      -1.01658982244979      -1.34871556673515
H         3.61166660206235      -1.89964385027754      -2.03109177559761
H         3.65249972537841      -0.11875150806081      -2.09801913404544
P         2.59641314852296      -3.00843391193266       4.26100311961234
F         3.15408908575030      -2.35138216783195       2.81289442015625
F         1.12539744545026      -2.19933707106636       4.00138349284209
F         4.02050206573510      -3.81048583768836       4.53464038520199
C         1.97467480590064      -4.55598141298370       3.17066853725921
C         3.40055899778689      -1.39391238619788       5.10895999805440
C         1.74487674458451      -3.70017925507727       5.93573219459271
C         2.64199321869806      -4.81303168751026       1.77714749082475
C         2.65815021533256      -0.02640870922122       5.03244060985521
C         2.51655068948754      -4.60703066276179       6.94521488990554
F         0.61779411884271      -4.47897335091707       2.86410287861847
F         2.16435366169713      -5.72688968930838       3.85691666034814
F         4.61900817850144      -1.14999978484208       4.50655158461307
F         3.66797947077335      -1.57759190279005       6.44381457381612
F         0.61605710130454      -4.42147607386804       5.59254042930080
F         1.28983000732234      -2.62851813471872       6.67631141337743
F         2.27466326154964      -6.04522016515193       1.32530057821046
F         3.98538156356810      -4.76993197646216       1.81402863158950
F         2.20304195039088      -3.91677658493594       0.83932851706954
F         3.38765698226467       0.93390647626279       5.65886537200540
F         2.49953623460817       0.38338081588303       3.73496270153558
F         1.43537095887507      -0.04823517796905       5.60893214171084
F         1.69124345329631      -4.88846043845359       7.99718209372755
F         3.61671567803847      -4.00154845179874       7.43974553710726
F         2.88623028054084      -5.78152684748473       6.39153568040587
