30
C8H15BF4N2 optimized with ForceField in AMS.
H         0.43648793396282      -0.44114139471444      -4.92126315363774
H        -1.21407580712882      -0.68883586070118      -4.22788429135621
H        -0.00400041171615      -2.02996939170034      -4.16988729310666
C        -0.13618906821461      -0.92947155499065      -4.10513588151045
H         2.49499270712883       0.06241418940898      -0.42458571879745
H         2.42479950370307      -1.04932222343438      -2.85530008129535
H        -1.41372755014978       0.42432043516114      -1.94377309809770
N         0.34837705020565      -0.45470015899626      -2.81626027241454
C        -0.36142304723671       0.18042773554838      -1.86391022433906
N         0.40481926143513       0.45884775806747      -0.79156797485816
C         1.63629627964233      -0.00905549111801      -1.07797140538048
C         1.60078080756461      -0.57822592477689      -2.33474169402407
C        -0.01573328174845       1.12225688085258       0.43904716549643
H         0.75170695704977       1.87113386704733       0.73445663875998
H        -0.97315974284228       1.66118243026443       0.26428830096100
C        -0.20842888094438       0.09097091353579       1.55435715154316
H         0.74859792087053      -0.44911941847922       1.72724562738953
H        -0.97709202810352      -0.64728417666661       1.23438431078776
C        -0.65761512286403       0.76515351982585       2.85506366588972
H         0.12246940271399       1.48259704017525       3.19204860643224
H        -1.60154291137232       1.32674160207718       2.68052800842391
C        -0.89417519213941      -0.26426496382216       3.95677086759983
H         0.04036483504908      -0.82704368328656       4.16699182008219
H        -1.69169607532603      -0.97638383530481       3.65399830744761
H        -1.21501066197653       0.25206670148748       4.88615156220694
B         3.84663164806008      -2.58465401834605       0.79869632271392
F         3.25721796840073      -2.72062049628185      -0.48584334391064
F         4.37256924729110      -1.27357282062067       0.94507946325396
F         4.89511418962403      -3.53191245862275       0.93827685881227
F         2.86304874186125      -2.81401013568905       1.79709462112805
