29
C7H14F3NO3S optimized with ADF in AMS.
N         0.26874311049068       0.40585908083942       0.36184569125021
C        -0.26493700668836       1.50580555479556      -0.57118611609695
C        -0.95427255169132      -0.06342664226541       1.14335837867292
C        -1.79229371420983       1.34640968573754      -0.59029781112488
C        -2.08418719848348       0.02359838621844       0.13628092413854
C         1.32712354091980       0.93147758836644       1.27983212893554
C         0.81690621062691      -0.72378313080166      -0.44646909310006
H         0.22094651545244       1.36732039201344      -1.54670768291911
H         0.01599653552143       2.46737622215363      -0.12366810922390
H        -1.08196692345221       0.65243459806444       1.97564617408209
H        -0.74347331245421      -1.06566415382030       1.54327486388583
H        -2.19785876661745       1.37099660553674      -1.61143147877435
H        -2.21650524442257       2.17983791139502      -0.01217982523147
H        -3.05660112081726       0.04249375292885       0.64841902677098
H        -2.08514081850959      -0.83653929078067      -0.55491326942526
H         2.16539640695487       1.29522160181367       0.67115787328262
H         0.88518737868748       1.73276092934430       1.88543497160064
H         1.65654278575142       0.11292465992241       1.93372668598904
H         0.03145536111702      -1.10596449149785      -1.10860977126773
H         1.66197028617066      -0.35759151166398      -1.04317932448318
H         1.15415384160519      -1.51464121559109       0.23621594755250
S        -1.26427394273939       3.28052107467030       2.99432998130656
O        -1.00747926900040       3.46833848573092       1.54612574341992
O        -1.01416038714630       4.43380616602415       3.85220045163385
O        -0.78257229292602       1.96830298400071       3.49692243807279
C        -3.12917299012748       3.07109211123190       3.06079665674780
F        -3.52511136470435       1.94541264936558       2.37133321915158
F        -3.76759640097684       4.12849041824229       2.49904282050160
F        -3.56857579053085       2.93707578112520       4.33480987135188
