23
C7H9F3N2O2 optimized with ADF in AMS.
N         1.15213290571244      -0.10944951826461      -0.00159058096881
N        -1.00270306575543      -0.32480971859588      -0.21103634876701
C         0.09753703112002      -0.87646773819583       0.31859593418845
C         0.71920860648292       0.90695488933173      -0.83763991104321
C        -0.62789762094690       0.77040884335331      -0.96792744932886
C         2.53736335418001      -0.51936806325379       0.19282735841066
C        -2.28939183585789      -1.00455849311046      -0.29360406427242
H         0.12195763649606      -1.75488164260527       0.94547008525300
H         1.40586367361624       1.62436245169414      -1.26825212721497
H        -1.34738393559443       1.33576776449356      -1.54566998414364
H         2.62535363441551      -1.03650724447833       1.15536680806305
H         2.81067765578918      -1.20450061518091      -0.62205999396026
H         3.17568489214728       0.37150434592666       0.19914652146475
H        -2.41244052740602      -1.64008591745631       0.59098969601757
H        -3.09113676454889      -0.25688770602453      -0.32351850298255
H        -2.25349711922117      -1.61352029515471      -1.21445989783337
C         0.35744875540113      -2.40053805957971      -2.30536007488059
O         0.70536052558084      -2.73733625325822      -1.13640436169519
O        -0.69066686874822      -1.87607494420060      -2.73184299388122
C         1.48320212384813      -2.67850554430242      -3.35994453362967
F         1.85549364177348      -3.99330281378925      -3.37785184969604
F         2.62247086784514      -1.95074876346537      -3.04915139510561
F         1.14596938157056      -2.33669901178321      -4.63146901229406
