47
C15H29ClN2 optimized with ADF in AMS.
N         2.98162943671650       0.84372492240740       0.17364725204934
N         2.83332977193418      -1.30727798652346       0.28606446163239
C         1.47667942903477       2.78105781631014      -0.17725178611661
C         2.74833505491427       2.25936082114533       0.49068003504722
C         0.93769534830922      -2.69664487844412       1.05490071312082
C         2.43246266909394      -2.64362118158691       0.76168893221243
C         0.22075113132486       2.08039289161027       0.33015601957438
C         0.06893115518764      -2.33203195086094      -0.14606812439889
C        -1.07325190609665       2.62145637714800      -0.26991453680305
C        -1.41165424651428      -2.25271664365273       0.22072976829855
C         2.59473025518276      -0.17116056726291       0.96599396467444
C         3.46750669418400       0.35024470161540      -1.02253572833756
C         3.37453856762898      -1.01006208776642      -0.94929240509672
C        -2.30001766415595       1.96019009212942       0.35959497478184
C        -2.29814386238670      -1.87432494586492      -0.96398599938752
C        -3.61532152190730       2.41093701439587      -0.26722973817428
C        -3.77701538546271      -1.79438411772978      -0.59369268695043
H         1.41995081856116       3.86319406388933       0.03921553143648
H         1.56670942115841       2.68341129354618      -1.27552145168303
H         0.71475185987791      -2.01239939871508       1.89770048181373
H         0.70663184030362      -3.72037427642123       1.39914410340654
H         3.64133361056155       2.81950261470252       0.17473079190231
H         2.65851365044710       2.31896426203841       1.58620973364379
H         3.02109647060321      -2.87173873315104       1.66347689514064
H         2.71965460937819      -3.34926178168959      -0.03315636259682
H         0.18425583014396       2.13970354018617       1.43286644548777
H         0.28197305730770       0.99928811906805       0.11398421446255
H         0.21736057940471      -3.06203134167408      -0.96633079865504
H         0.38101964669926      -1.34814766912689      -0.54323780286074
H        -1.12965734311416       3.71674089327303      -0.11935770377716
H        -1.08116534645902       2.45595849529206      -1.36515194598204
H        -1.53186222793580      -1.51393867839524       1.03475652825114
H        -1.74390033082613      -3.22581608462892       0.63022673200075
H         2.00387292762107      -0.06332915541869       1.95383952621779
H         3.83678627530313       0.99555189760331      -1.81088003804494
H         3.65083016343687      -1.77961857639267      -1.65979863251310
H        -2.20004836422205       0.86495377784484       0.27104250912165
H        -2.30060403442799       2.17245291017003       1.44387580674775
H        -2.15687812542752      -2.61240556746158      -1.77611869726389
H        -1.96429397014010      -0.90080855438805      -1.36977623437684
H        -3.73709935739964       3.50399993985182      -0.19147616859103
H        -3.65705242335523       2.14337143746402      -1.33582525457205
H        -4.47879565066621       1.94192670561148       0.23049503737421
H        -4.39907578847005      -1.53083220249290      -1.46338749538356
H        -3.94515434959205      -1.03516069418733       0.18609695249809
H        -4.13569811935158      -2.75980713791164      -0.20073410013011
Cl        0.70546612639211       0.15037226284406       3.32078805259880
