57
C15H32F2N2O4S2 optimized with ADF in AMS.
N        -1.03097595658889       0.29015884226923       0.42458420535333
C        -1.42788121109796       0.87665982855527       1.77440063602061
C        -2.09259284451869       0.64212691866337      -0.59346675520738
C         0.26952796418718       0.93996527998982      -0.02280685604174
C        -0.85553368806259      -1.21107043950804       0.57114975043491
C        -2.81142765572929       0.45241374415620       2.22674387679814
C        -3.48434919496118       0.19622822669234      -0.17679067316471
C        -3.87050254218353       0.78737558989977       1.18015992302172
C         1.49460927120850       0.56198060459747       0.78928981750155
C        -0.44871095752898      -1.94854937149862      -0.69110746710330
C         2.68136927195638       1.44789336058736       0.40389763950212
C        -0.15978186418329      -3.41306545830540      -0.34570745126722
C         3.92513546833790       1.10721948118653       1.22407194583224
C         0.30539544409044      -4.22271062582583      -1.55367304948384
C         5.12264531367111       1.98273840958257       0.86742738129690
C         0.63341648195908      -5.66770456705929      -1.18688721569890
H        -1.37007686872652       1.96996005453772       1.65309832009005
H        -0.65831072647250       0.55251712885396       2.48382034595487
H        -1.78242024662175       0.20220191476661      -1.55105201665293
H        -2.05563469377663       1.74002507092003      -0.68954256387784
H         0.08476036327477       2.02437378617259       0.03737224788011
H         0.39819992543258       0.67961961959324      -1.08468835647573
H        -1.79967316928977      -1.60697847888746       0.96190786543067
H        -0.10472791451306      -1.35368698888502       1.35766025584966
H        -2.99850210182452       0.97376676879071       3.18004439496658
H        -2.81934505390717      -0.61964602753299       2.48033050226936
H        -3.54050682088959      -0.90534764169762      -0.14963666884146
H        -4.18217496337832       0.52455506804322      -0.96546095753204
H        -3.95720085822198       1.88565371888218       1.08266526937341
H        -4.85820788942684       0.41326850422303       1.49289737170987
H         1.30637145915059       0.66395144361578       1.86951245410450
H         1.76268760361511      -0.49375008937390       0.61879079871643
H        -1.24105790385703      -1.90409162912563      -1.45905117953552
H         0.46130120704055      -1.50515751159989      -1.13057879093611
H         2.41682758502373       2.50938401087713       0.56852184862901
H         2.90506843528990       1.33973415548256      -0.67509057295170
H         0.60339544261189      -3.45163202988189       0.45097435190708
H        -1.06820602527850      -3.87574101339369       0.08257606987437
H         4.17752663263494       0.04299083272201       1.07038397814643
H         3.68154038967257       1.21547363043370       2.29540118417174
H         1.19852769237818      -3.73926938616886      -1.99072724376805
H        -0.47577668015317      -4.20152453258733      -2.33605189991388
H         6.00262856419158       1.72016200538164       1.47366658172148
H         5.39760801887411       1.86736795282796      -0.19368320871159
H         4.89911107361523       3.04726340300771       1.04403586008844
H         0.97153629330795      -6.24055577146650      -2.06339395726285
H         1.43033349397365      -5.70518369775978      -0.42733578444071
H        -0.24888892982222      -6.17733247540334      -0.76821480544514
N         0.67119011929680      -0.43857588853885       3.94951379062021
S         0.08665410066708       0.61908553248134       5.02347836847995
S         0.41421087171224      -2.01775309101787       4.07283534240400
F         0.94544404346510       0.31470893985153       6.38410187462324
F        -1.22527786143815      -2.15997157246341       3.73444305367062
O         0.53220036470251       1.92669944659704       4.57340487383219
O        -1.30035287068861       0.41308701823314       5.39927014040964
O         0.55470156397797      -2.60761319927880       5.38463752101891
O         1.03203926372113      -2.62460118891473       2.90109993730830
