35
C9H20BF4N optimized with DFTB in AMS.
N         0.03042467213363       0.14456342298461      -0.02950318017098
C        -0.84802463156918       0.97076325991404      -0.92707731075151
C        -0.45453811393328      -1.27629444961294      -0.01785978249260
C         1.42497722741042       0.22848232511532      -0.60325427126483
C        -2.32073110000172       0.89821040350219      -0.54821914581834
C        -1.92823563938076      -1.39648242018656       0.35037366763941
C        -2.80082019413234      -0.55112030082366      -0.57443232985779
C         0.04603022643082       0.70438270991357       1.34662868997326
C         2.41480733008559      -0.79561176502076      -0.05546550369645
C         3.80663212832606      -0.47644148820769      -0.60143420408699
H        -0.71230454038119       0.58346314354202      -1.94039395456509
H        -0.47985654568133       1.99860525371498      -0.88230760277197
H         0.15516412169658      -1.82571025726858       0.70177039993914
H        -0.28235962087184      -1.67528953214048      -1.01958548947900
H         1.77613124870967       1.24643658661590      -0.41096881588842
H         1.33506632348510       0.08631248960260      -1.68157647505560
H        -2.87351759767874       1.48492182476336      -1.28640329202913
H        -2.49952246479199       1.34634155648287       0.43468094504727
H        -2.09369697079672      -1.11259852605978       1.39516323739065
H        -2.19733612121849      -2.45103585719131       0.24781404548264
H        -3.84387613380004      -0.60561472972569      -0.25400497320048
H        -2.72629860992084      -0.93768408214174      -1.59425705455683
H         0.72773715594870       0.11934864551089       1.96037785694622
H         0.38316064686685       1.73861450573577       1.30309165470853
H        -0.95122445971447       0.66409862541112       1.77654115465624
H         2.43750211270143      -0.78669303938757       1.03868418400459
H         2.12955073082449      -1.79370111004773      -0.39557541491733
H         3.79518330686670      -0.49859944532542      -1.69103849453233
H         4.13584200450814       0.51016101883331      -0.27219769613619
H         4.51913588994734      -1.21972230260805      -0.24544372606407
B         0.21847816596241      -1.27697158490350      -3.48433189052721
F         0.57113900134858       0.09565306044727      -3.51240566604809
F         0.29886306215472      -1.85477862278842      -4.71271107390177
F        -1.09495197702694      -1.34870072690635      -2.94638367812078
F         1.07907722109262      -1.90712815064360      -2.54353107585419
