37
C9H20F6NP optimized with ForceField in AMS.
C         2.69653555034036       0.35672039486898       1.54798311652765
C         1.64066707570874       1.28869090226408       0.97299940867492
H         1.39432747997714      -0.84193802776572      -0.90310480620573
H         0.41435437530128      -1.69565911001988       0.33319532423465
H         3.18785794449186      -1.42586211599377       0.39612665860093
H         2.15553328737002      -1.71668768576597       1.85462518355222
H         2.64169340482677       0.35939473679573       2.65767334328848
H         3.71783947838691       0.66888494900389       1.23602010937247
H         1.35502960681631       2.07033247756331       1.71407374931410
H         2.10082376338160       1.81610034291560       0.10450063237671
H        -1.20989553885538      -0.48390490129775       1.48944303098764
C        -0.43787781072321       0.28757799626356       1.69962178641579
H         0.10901118654506      -0.04878325035302       2.60890719366007
H        -0.95415956734207       1.24226889121991       1.94411134423217
C        -0.19229111215996       1.14663099873138      -0.60582932938609
H        -0.31368624595556       2.22796709670700      -0.36484595301129
H         0.45437529483003       1.11943332619473      -1.51251415517445
H        -2.31229124226082       0.73400771515110      -0.14485329882252
H        -2.98911216977587      -2.10308101274077      -2.62929284701392
C        -1.63894990836170      -0.77585620386566      -1.56948290712157
H        -0.82591273470900      -0.90926714777846      -2.31593175896587
H        -1.50964348494834      -1.51345263315749      -0.75449004767909
C        -2.97951525375328      -1.06153291142671      -2.24311876729092
H        -3.14066994753758      -0.36723133518074      -3.09559179904039
N         0.48337319506410       0.46413282094588       0.54593025032482
C         1.09476270936219      -0.83330100322281       0.16910669587732
C         2.35437188571093      -1.01934045970188       1.01040239095283
H        -3.81040902741137      -0.94430343320368      -1.51483127271066
C        -1.60494009497647       0.64581573729463      -0.99536828597926
H        -1.98051012191193       1.34303941306358      -1.77762243877073
P         3.48652067919471       0.12280605525628       6.78221177323138
F         5.05648471689508      -0.57280156801768       6.80553613000342
F         3.45402389776328      -0.10835158953367       5.08213641087048
F         2.75920604641406      -1.41932054736663       6.98734183948290
F         1.92466795102334       0.83593045830750       6.74142999825608
F         3.56774907866046       0.30332213596615       8.48795773540773
F         4.16501241271829       1.68562313307903       6.56601981332775
