47
C13H28BF4N optimized with DFTB in AMS.
N        -0.96910473033260       0.61586268071483      -0.06128725832261
C        -2.00569551437998       0.37994006577296      -1.12642712356356
C        -1.53414668324930       1.59407089735920       0.93488914689630
C         0.21140205191512       1.24742639767441      -0.75093352774187
C        -0.58290451930726      -0.64821796595736       0.64610042068620
C        -3.32617405531723      -0.13307992549706      -0.56935256338384
C        -2.85419890117581       1.13446889405293       1.54213966905465
C        -3.89195703410273       0.84114041431422       0.46120804911153
C         1.41737855422874       1.52638548785623       0.14134095372108
C         0.08055183621251      -1.70677417216459      -0.23286638773326
C         2.48547678996409       2.25837775950055      -0.68221684493206
C         0.37460350739404      -2.95378148067129       0.61079071944139
C         3.72000573768829       2.56184717957537       0.16344883186543
C         1.04444461312813      -4.03943907332234      -0.22863619359853
H        -1.58792784888916      -0.32120294977027      -1.85112024801758
H        -2.17004286837305       1.34282144491346      -1.61690949154357
H        -1.68623119984641       2.53504367905616       0.40061167164559
H        -0.78888006181640       1.73728029242679       1.71960975534140
H        -0.15441776511217       2.18459137027668      -1.17611686878645
H         0.49747774275810       0.58681108375713      -1.57285849761229
H        -1.48961486409683      -1.06618411090191       1.08611711629111
H         0.08761398632711      -0.36747128313372       1.46207627776094
H        -3.21172559625237      -1.13392546873023      -0.13985187891200
H        -4.01661429879426      -0.20870860109060      -1.41336935377894
H        -3.21069181736418       1.95525266139849       2.16993597196952
H        -2.70629474571463       0.26108590667545       2.18604637339401
H        -4.16181297360981       1.77545492308877      -0.03739250737387
H        -4.79053068975659       0.41851678612472       0.91715691676234
H         1.84166316241129       0.59727293729870       0.53340846093879
H         1.13164510787364       2.15387799452611       0.98931437471477
H         1.01723073479965      -1.33126225327564      -0.65205144233553
H        -0.57605250512984      -1.98246221704921      -1.06188352209470
H         2.06674703660553       3.19298845383293      -1.06737557408819
H         2.77121526228437       1.63906040744327      -1.53893943369143
H        -0.56128600613726      -3.33922146745133       1.02854754703745
H         1.02814582849943      -2.68134263898556       1.44616392027126
H         4.16213151023778       1.63925942633966       0.54251207217052
H         3.45621136129142       3.19529749826910       1.01116215828764
H         4.46354801985547       3.08144786663046      -0.44052197881219
H         1.98905539083583      -3.67851482834696      -0.63717744183424
H         0.39831736215887      -4.33634891609911      -1.05549787744364
H         1.24402630024525      -4.91481253454675       0.38895400959141
B        -2.94798869694287       3.78422061252578      -1.44863585074685
F        -3.22259603809209       4.96676584431220      -2.06741177150781
F        -3.65797331523898       2.70463073606884      -2.01503045378686
F        -3.23623850793117       3.82081663404430      -0.06890642045092
F        -1.55315448465169       3.45765314546426      -1.56397372096057
