60
C16H30F6N2O4S2 optimized with DFTB in AMS.
N         0.68727846136936       1.28897133043999      -1.16559115696744
C         1.33562154750164       2.48332277696471      -0.52242605982319
C         0.34539738212393       1.76935396499275      -2.54475939129579
C         1.65290730366536       0.14532042313449      -1.26812218871697
C        -0.55219281721886       0.93491994140589      -0.39868007032170
C         0.70041085824961       3.72040634335365      -1.15876245727314
C        -0.08818035560116       3.21657210534746      -2.37406860588867
C         2.10338323377755      -0.41055902815988       0.07787856890744
C        -1.27874414032354      -0.31333426652782      -0.89637566667135
C         3.13487555121705      -1.52077185173996      -0.15975611986631
C        -2.59023937942002      -0.48287005861019      -0.12009808910287
C         3.65093941495917      -2.08659611101277       1.16596974442812
C        -3.33833189869286      -1.73983043697591      -0.57586733362015
C         4.68700287405632      -3.18383695816740       0.92958289403845
C        -4.64691625555468      -1.91438973423446       0.19200286425368
H         2.39988830063576       2.44029773097765      -0.75217743762203
H         1.19593492683133       2.43543858371865       0.55769266949003
H        -0.41452596825520       1.12906214827879      -2.98878563630848
H         1.25677333481376       1.71093355231106      -3.13862007591165
H         2.51697036564404       0.52368368455988      -1.81619988243525
H         1.18211504320419      -0.62789185321953      -1.87810987754997
H        -1.21575018151403       1.80123978063177      -0.45667716888768
H        -0.26207533389109       0.79836756561287       0.64585347719342
H         1.48959530595350       4.40695236043778      -1.46986858310631
H         0.04754180122743       4.23721681893622      -0.45265839792128
H        -1.16485085796443       3.29201024031484      -2.20233999027447
H         0.15635590791262       3.78454340982940      -3.27245216905972
H         1.25703520582741      -0.81800764686997       0.63869127916141
H         2.55731057679940       0.38437925316004       0.67615287463647
H        -0.65735914239904      -1.19955483694938      -0.74623283541885
H        -1.50051061172051      -0.23313698685823      -1.96338668503660
H         3.97214437353646      -1.11793117319041      -0.73633522788852
H         2.67607289933304      -2.32099145736114      -0.74973268887936
H        -3.22242392706284       0.39782106181258      -0.27613180541031
H        -2.37238113909343      -0.55311003032661       0.95101274503868
H         2.81199951013182      -2.49221642479467       1.74235759602543
H         4.10180513580944      -1.27987410371583       1.75368881026369
H        -2.70222156718363      -2.61713117917041      -0.41876113466041
H        -3.55003853429807      -1.66700771096136      -1.64766048703780
H         5.04342992352788      -3.57222687759031       1.88367976930807
H         4.25053915942107      -4.00539020267736       0.36012832760134
H         5.53845693228881      -2.78991729429496       0.37373264115853
H        -5.16003326694970      -2.81350021276129      -0.14856068164972
H        -4.45350905888994      -2.00798476115722       1.26137747201128
H        -5.30228875006271      -1.05754075486976       0.03084012714643
N         4.65744216627916       1.82593230313180      -4.68224464853364
S         3.44320141342279       0.87425531727935      -5.12034990479081
S         4.51494895639386       2.61439753146465      -3.30529810298288
C         2.20229760020727       2.01413517761887      -5.97019924179959
C         5.22000711388178       1.46171193224816      -1.99018892009791
O         3.91442440617883       0.00733952406555      -6.16088586793268
O         2.67694011706646       0.27862072779372      -4.03450204126833
O         3.15360934172129       2.85217264072993      -2.83642328312199
O         5.42040141877339       3.72686282403374      -3.31312447471722
F         2.16872765736702       1.77534274251170      -7.26713151050681
F         2.51092954313817       3.28466547852316      -5.77336209244746
F         0.98288244939347       1.80275880049367      -5.46954340491939
F         4.51277628782937       1.59482272080230      -0.85905312633727
F         6.47937315673015       1.74732700908086      -1.72694063437482
F         5.13596015169476       0.19341478199886      -2.36574554272571
