31
C9H20ClN optimized with DFTB in AMS.
N        -0.32362986094177       0.07953420818284       0.12725767198847
C        -0.71470851293862      -0.93063295484478      -0.91318335844058
C        -1.39582540445854      -0.06467795973679       1.16324286376660
C        -2.23448057116094      -0.85707130132665      -0.98387422533398
C        -2.68485817002188      -0.31856014416322       0.38439760150533
C         1.01057495966944      -0.25222306244824       0.72689071499115
C        -0.35416024250444       1.45472838109285      -0.48525664316411
C         2.17642130956863      -0.18612282033251      -0.25825515321999
C         0.11486570538793       2.57017152879311       0.43337598954750
C         3.46800001546765      -0.57169149230576       0.45833550078109
H        -0.38316899885122      -1.91011850248487      -0.56208468067826
H        -0.22151127306946      -0.67873106778690      -1.86098846931268
H        -1.43161352089708       0.82693531681830       1.78841437387348
H        -1.14172483642799      -0.92636215377727       1.78534521545591
H        -2.65161707853729      -1.84500093906902      -1.18435182015286
H        -2.55098002365615      -0.18651350621301      -1.78500388999906
H        -3.25953661216742       0.60277651318200       0.27060271421527
H        -3.30590866394610      -1.04043052789952       0.91765928566456
H         0.92649060695193      -1.26597745792959       1.13104003519598
H         1.16859138300872       0.43284127470013       1.56443499417482
H         0.27070749935492       1.40855417739172      -1.38738578073566
H        -1.38578878719010       1.63617535053656      -0.79176933552515
H         2.00211296884786      -0.86647381113495      -1.09336447043468
H         2.27216878562888       0.82022127704181      -0.66904489453481
H        -0.46127767311197       2.62071097852697       1.35756853121400
H         1.17039245696857       2.47338345329792       0.68090578247620
H        -0.02115801929482       3.50791595417459      -0.10456274476609
H         3.68377939017434       0.12514367772549       1.26989840858144
H         3.39574238698295      -1.57851644011008       0.87264409816180
H         4.29482969948773      -0.54662702358824      -0.25014751350267
Cl        1.00293249047627       0.47188598598710      -3.21515965499303
