38
C10H20F3NO3S optimized with ForceField in AMS.
N         0.27310036778493      -0.11478187319377      -0.18652782759896
C        -0.59426511858155       0.70551413768221      -1.09283654612992
C        -0.49083308470429      -1.33410214757035       0.23745572503668
C        -1.94944152169612       1.09245971460831      -0.47735227505672
C        -1.86966093376675      -1.02998312373946       0.85862551761859
C         0.70191032857822       0.65990222284774       1.03010011248652
C         1.45653361725982      -0.55196193703329      -1.00445576490446
C        -2.71831436526684      -0.15731448021911      -0.06176382063618
C         1.56329468242576       1.90661240340693       0.75707766341668
C         2.53348510087296      -1.35380415039179      -0.24946921734652
H        -0.81175729214043       0.13669726017920      -2.02702809700319
H        -0.07645645022200       1.62718386373232      -1.43056605840326
H         0.08019932452581      -1.91919632045671       0.99024389289187
H        -0.65991927529620      -2.00977386087915      -0.63281229320658
H        -2.54663618818000       1.64715704377353      -1.23218991850231
H        -1.82098102480531       1.77639373082646       0.38625254410267
H        -1.75886081177566      -0.54398386210626       1.85020568392530
H        -2.40471114530579      -1.98916392772093       1.03119653427046
H        -0.17069821625727       1.00326808538364       1.61819765117199
H         1.26111997199336       0.00408505989518       1.73184344815216
H         1.12122399988113      -1.18507739562209      -1.85821939182804
H         1.95341872668924       0.32303296164522      -1.47848563707413
H        -3.65225593753866       0.13795394063791       0.46276667620103
H        -3.00123996976378      -0.73885976909628      -0.96690351535358
H         1.83174908396611       2.37430458768472       1.72777342186088
H         2.51263119056934       1.65350367258057       0.24555184590951
H         1.00855251052660       2.66885185789576       0.17516003253156
H         3.32840051482550      -1.64800094138623      -0.96690271241322
H         3.01974461004202      -0.74833793420435       0.54111991977172
H         2.12385275084786      -2.28683986833557       0.18504421182178
S        -3.20369361314569       1.22112699747148      -4.99088810993497
O        -4.21479268041472       0.30174765763413      -5.69120169471135
O        -3.00087169211508       0.53768607975807      -3.63199676708070
O        -4.04314555122275       2.45776247026214      -4.63754677660068
C        -1.68326220518091       1.55457981069894      -5.92539319453498
F        -2.00679054154001       2.11983501192116      -7.14432006943883
F        -1.00112140329374       0.37091001466538      -6.13365286757246
F        -0.88371505067512       2.42675838616433      -5.21116836743839
