40
C12H25NO2 optimized with ForceField in AMS.
N        -0.10602553106435       0.02632373525044      -0.05863012394827
C        -1.02283187004919       0.52859872046320      -1.13416872035146
C        -0.61055540944488      -1.30054005761223       0.42594041268750
C         1.23784259839980      -0.17825396497909      -0.70277547534072
C        -2.50033459194757       0.61032345449716      -0.71407874547195
C        -2.08642324586611      -1.28665056911027       0.87269053423053
C        -0.02401630694000       0.98537672640285       1.09791276703227
C        -2.99323651805823      -0.74884242703393      -0.22938843783915
C         2.37785625378585      -0.62872221459773       0.24448292516151
C         0.57202361558806       2.36865845723912       0.77885381579699
C         3.67654275633154      -0.83607416308511      -0.53142027784796
H        -0.97823296093658      -0.14675897845961      -2.02074483290587
H        -0.70327357752059       1.52257016582981      -1.51082439240134
H        -0.01581733202169      -1.66144645102918       1.29247424129234
H        -0.51273794751760      -2.07031660619330      -0.37421614897440
H         1.56385745527468       0.74988834834158      -1.22321999584240
H         1.15720594748682      -0.94197833368040      -1.51118653568545
H        -3.10817698342204       0.91787545786815      -1.59252718093943
H        -2.65435401113095       1.38197670469451       0.06776585068296
H        -2.21543737296083      -0.68982487740991       1.79944360032908
H        -2.39847221428637      -2.32533535652309       1.11602798547172
H        -1.02156352467839       1.16928099877188       1.54128606686373
H         0.56660314503053       0.54309366721055       1.92847840049718
H        -4.03102448861500      -0.65238923973171       0.15620698133416
H        -3.00743794702045      -1.46510967020402      -1.08052126246917
H         2.57435872226849       0.13581808696571       1.02297927814273
H         2.12633399288112      -1.58748726326553       0.74062063210751
H         0.60512097535370       2.96591666437998       1.71452526748481
H         1.61158094899692       2.29936872845030       0.40279464408334
H        -0.05716224194061       2.92947980688955       0.05997352892001
H         4.48110689542464      -1.15108304197677       0.16616479448791
H         3.54592569743219      -1.62681049264953      -1.30069221563042
H         3.98685744395489       0.10927512037028      -1.02548037759314
C         1.05814405395584      -1.56968408360122       4.55686496562040
C         1.83344877753435      -1.66998821507133       5.83307959246532
O         3.00498427826202      -1.32937008831614       5.86243594098810
O         1.29936925649125      -2.09005322017026       6.84697854081768
H         1.02262912838184      -0.51077790913897       4.22583307668687
H         1.54995933804902      -2.18146182363851       3.77145749860746
H         0.01889326123788      -1.93648783804721       4.69932219344901
