63
C17H32F6N2O4S2 optimized with DFTB in AMS.
N        -1.18168844470633       0.30713477367542      -0.82762754811496
C        -1.64526473115883       1.54517703179176      -0.12050637588595
C        -2.23251821544138      -0.11155168903589      -1.81898995225176
C         0.05132508623187       0.63658913694020      -1.63333889554041
C        -0.91017405192476      -0.78509682926934       0.17517129287635
C        -3.01104965345276       1.38165396875200       0.53771634855852
C        -3.61076981093157      -0.30157317594382      -1.20643854579491
C        -4.06595728166593       0.96539331995402      -0.48653089288871
C         1.27666651157610       1.04082780182587      -0.82053411345986
C        -0.23628699476695      -2.02531767934210      -0.40577697438718
C         2.46358525152038       1.20870216773658      -1.77870117591661
C        -0.26898372516892      -3.17278741655779       0.60834263507899
C         3.73571895874509       1.59262022608507      -1.01826990566622
C         0.38748176149627      -4.41951386079767       0.00412613707124
C         4.92230401569089       1.73205305944686      -1.96999209618145
C         0.35040814932800      -5.59469283249177       0.97756245794560
H        -1.68841416041062       2.34013903220068      -0.87039017358431
H        -0.89268163442131       1.80456099816570       0.62654421427633
H        -1.89001693232489      -1.03578878739921      -2.28050051974556
H        -2.27123637967879       0.66107044448758      -2.59034916810047
H        -0.22885418028936       1.44862800544575      -2.30915399770903
H         0.27496036151853      -0.24333023444866      -2.23858713632819
H        -1.87074044139900      -1.06084743197252       0.61385413986305
H        -0.29206153547283      -0.34950625209417       0.96404342639678
H        -3.27805482250452       2.34573750019247       0.97877609734915
H        -2.96085861838261       0.64920868627730       1.34781506387571
H        -3.61955095301025      -1.15218156957213      -0.51996326795903
H        -4.29337269761669      -0.53222014765746      -2.02803490503404
H        -4.20877440454560       1.77136449157719      -1.21327819830318
H        -5.01849130075273       0.78798113248671       0.01775454038566
H         1.09739005538317       1.97983689858380      -0.28776827919373
H         1.52437559452164       0.27385946785723      -0.08316850298149
H        -0.74881532647893      -2.34977111704702      -1.31148979704941
H         0.80132567047195      -1.81026445288155      -0.66669509661440
H         2.22785859834301       1.98025254261783      -2.51907952577522
H         2.62604452073137       0.26769797087168      -2.31217762413936
H         0.25891144082376      -2.87617026872319       1.52165992174307
H        -1.30761464634467      -3.39541968178408       0.87770108006401
H         3.95692559157291       0.82367046762236      -0.27045178640357
H         3.57607907738758       2.53866553742075      -0.48888981022353
H         1.42521357853598      -4.19012195975346      -0.25632905989036
H        -0.13367784756194      -4.68944554140066      -0.91897698721533
H         5.81882358260197       2.00152283816695      -1.41158766312661
H         5.10501586640302       0.79126038696123      -2.49000590634781
H         4.72798052612875       2.50727750292031      -2.71229718116798
H         0.82211828038314      -6.46586983738330       0.52337396544892
H         0.88425514576621      -5.35030075917944       1.89751139919540
H        -0.67950193220154      -5.85045967515533       1.23140025252596
N        -0.36000741363607      -1.62262529733378      -3.83306314113837
S        -1.59205028481121      -2.08814601728403      -4.75589173127844
S         0.89694059177009      -2.61271335012353      -3.67102012242064
C        -2.44332839584902      -3.54021604837708      -3.91773309474293
C         1.79885215596917      -2.76649626663822      -5.30970646422891
O        -2.57219118761168      -1.03195093155709      -4.63138241813741
O        -1.23166075835863      -2.55112819544424      -6.06853809893942
O         0.54844527588162      -3.95905509287346      -3.28053152042391
O         1.82696888185801      -1.89077222800950      -2.82375670903165
F        -3.73442320812670      -3.50219927814101      -4.20954549003475
F        -2.32245178246180      -3.40605301177921      -2.59083040986604
F        -1.95340482760939      -4.70296590408090      -4.28042822019692
F         3.08389064184580      -2.95883221478517      -5.05681458975047
F         1.66375354279627      -1.64767447063069      -6.00057341854132
F         1.34101096469563      -3.78176883151476      -6.00871539124288
