49
C13H16F18NP optimized with DFTB in AMS.
N        -1.06330352014502       0.28957015637042       1.50775885510941
C        -1.00910372016525       1.14151954534335       0.27218267941480
C        -1.44095414308863      -1.12244256108197       1.15393950575956
C        -2.29697716018197       1.08534877209141      -0.54034732829848
C        -2.71619081970112      -1.21619912469187       0.32523388046560
C        -2.62914426654627      -0.35256851315341      -0.92975338547978
C        -2.01068915063089       0.86422457867692       2.50098839671374
C         0.29004692365676       0.26965547064347       2.12498875916817
H        -0.16868818878236       0.77749449508015      -0.32670928007791
H        -0.79793335235779       2.16311907500345       0.59658396554419
H        -1.55311118001587      -1.66732568600603       2.09403379949176
H        -0.59719419244908      -1.54127536720327       0.59701286063048
H        -2.14296858015963       1.69215329959054      -1.43615551267484
H        -3.12404485394994       1.52181879564190       0.02133645989927
H        -3.57978100029843      -0.91995274288785       0.92001050789722
H        -2.84584145035473      -2.26615048809257       0.05087329969069
H        -3.58793001468226      -0.37623709652595      -1.45141047604183
H        -1.85975364513341      -0.74396563996302      -1.60416518228219
H        -3.00392413499345       0.88514314119419       2.07331521643671
H        -2.01275826381005       0.24172174516737       3.39260923494133
H        -1.69521173824438       1.87538432728927       2.74841472970169
H         1.00592828094511      -0.14149463424817       1.41570201334738
H         0.57153215588927       1.28764874269427       2.38799334025524
H         0.25792090590837      -0.34847943221686       3.02024363147452
P        -5.94989305179825       1.09555887468025       2.61404724819680
F        -4.60756374181473       1.52781562543346       3.55485783734800
F        -7.00798008449848       1.36562893396268       3.85700428761916
F        -4.88473617492186       0.81456896985677       1.27194850830148
C        -5.97287527575241       3.01568202401922       2.19204996074856
C        -5.48911709999154      -0.70302613903726       3.36797350019971
C        -7.42370099324661       0.44618431024225       1.42232485856507
C        -4.81826191269945       3.60614260201308       1.33493542187655
C        -6.12299640121657      -2.09948937129840       3.09891202570861
C        -7.97830055269847       1.16295835066082       0.15746210098341
F        -5.94650729326583       3.69358184120398       3.35091975297960
F        -7.11689737012855       3.35202677084450       1.56899164423896
F        -5.55471300768432      -0.53723857853627       4.69713209307313
F        -4.16806514973308      -0.90929413695654       3.07781102880051
F        -8.48859719280023       0.13290676467702       2.17744681751230
F        -6.91683562796116      -0.71825835950777       0.94704359682377
F        -4.86227959606630       4.93584552548526       1.33397034595504
F        -4.86845238201143       3.19768297148522       0.06854999013075
F        -3.61189759567129       3.25110462090062       1.81135301463791
F        -5.72733372949984      -2.93671479161102       4.06484961380360
F        -7.44618548825707      -2.09278524650095       3.09171794317367
F        -5.68132628746716      -2.60785330041127       1.94594941465523
F        -8.92368175509448       2.04249261631295       0.45702981860432
F        -8.51264208656580       0.26326238346106      -0.67086291108173
F        -7.00364975136403       1.78514211510459      -0.50831518184115
