61
C19H36F3NO2 optimized with DFTB in AMS.
N        -0.31801347607487       1.21093060700588      -0.01093722862804
C        -1.28400228949402       1.91591541541888      -0.91559594269219
C        -0.01062724287277       2.09288046212187       1.16782343379824
C        -0.87015966546092      -0.09903375883099       0.48487906552101
C         0.95136810184435       1.01612047835658      -0.80670965279438
C        -2.56143972662530       2.35273584629490      -0.20773983456962
C        -1.25747125427136       2.54638322103755       1.91343084917124
C        -2.23645442320417       3.25613008557923       0.98099459627840
C        -1.10109021552880      -1.15881036710349      -0.58712644601434
C         2.04147206321411       0.22833381614852      -0.08813461575300
C        -1.55362752039211      -2.45116222276934       0.10591647846322
C         3.29134222301507       0.12504433403866      -0.96708560753571
C        -1.76770633907002      -3.57494849072581      -0.91057103940700
C         4.35607825230963      -0.71379558361294      -0.25211552102801
C        -2.19556671891621      -4.87032866315516      -0.21340023856303
C         5.62193573457476      -0.85624669491478      -1.10161247622397
C        -2.41141693445005      -5.99977927920555      -1.21893658954290
C         6.67615201309902      -1.69533587874522      -0.38118728955835
H        -0.76483579575562       2.79419047320777      -1.31048094080096
H        -1.51346348091263       1.24467216914204      -1.74543073016564
H         0.63075622435100       1.51835688782866       1.84157127511391
H         0.53583750949207       2.95971242494536       0.78594087463456
H        -0.16805474700421      -0.47777867189895       1.23098669395570
H        -1.81270156467103       0.11642937387288       0.98937781802280
H         0.67149359662504       0.51525830722411      -1.73695360423180
H         1.31345922875557       2.01775720939232      -1.05729454333209
H        -3.17071987945043       2.89511563400273      -0.93574074023998
H        -3.13568650605611       1.48385654108258       0.12319944091328
H        -1.74423855922231       1.69609484192301       2.39710528165913
H        -0.93176256921650       3.23050691693461       2.70105499922547
H        -3.15451677754499       3.50144501877821       1.51980036873558
H        -1.79259702310102       4.18975763023178       0.61974702119352
H        -1.86175154384050      -0.83246148779712      -1.30419947840884
H        -0.17968266855401      -1.36329547395922      -1.13711259592786
H         1.69249160953809      -0.77962045025801       0.14239422689803
H         2.30519351181049       0.71590493558569       0.85210293236408
H        -2.48358517695387      -2.26539477046655       0.65393641646504
H        -0.78685394813915      -2.74684261062056       0.82835676882730
H         3.68383345233851       1.12645705288158      -1.17766965121540
H         3.03192600323143      -0.34187092096514      -1.92413337518119
H        -2.53460763321652      -3.27639851993611      -1.63500351558676
H        -0.83728439139485      -3.74818868594720      -1.46228089149398
H         4.60580061497121      -0.24301911559399       0.70398882637689
H         3.94693864690839      -1.70518325330303      -0.03421917212387
H        -1.42502374747306      -5.16515289593475       0.50601107196537
H        -3.12305089815476      -4.69521333858812       0.34245113881687
H         5.36933744719586      -1.32945110517619      -2.05719822661127
H         6.03108253269790       0.13686933128891      -1.31872093898225
H        -2.71647097025305      -6.90889837878619      -0.70019662816622
H        -1.49056167491631      -6.20508207773757      -1.76665885935378
H        -3.18889641725417      -5.73155173692591      -1.93619091539655
H         6.95440578605770      -1.22777558106348       0.56393164608750
H         6.29077689813550      -2.69425015073142      -0.17322448705670
H         7.56897045383399      -1.78875131108076      -1.00025206913223
C         1.54817085612709      -1.21965411879258       2.74554306982468
O         1.12809631626967      -2.02243469550854       1.91127945153440
O         1.22333643525356      -0.04719832479580       2.95775467785144
C         2.76063304627829      -1.75654915037235       3.64293903799645
F         2.89587058555897      -1.09297358076264       4.79990154064836
F         3.92371939605389      -1.60100610330577       2.96732266006298
F         2.65760623470447      -3.05881009005307       3.94227320531244
