37
C11H18F6NP optimized with ADF in AMS.
N         2.89276040239082      -0.17177448315480      -0.53443542775782
C        -0.88000973681709      -0.66362750929785      -0.47136065413076
C         0.45754355289263      -0.05276960313675      -0.05561234574594
C        -1.89275729996187      -0.62397548585372       0.67218852213044
C         1.52861575193211      -0.26953491329535      -1.12416108875792
C        -3.23225465871703      -1.25459272151285       0.29656724525791
C        -4.23193725152156      -1.24288579763852       1.45200595791468
C         3.65746643525447      -1.27582662903053      -0.42841626157499
C         3.28716338094071       1.00291546299134       0.00949943565516
C         4.87693196376129      -1.22621145674621       0.22617099564275
C         4.48762957507504       1.09738780824555       0.67874954414153
C         5.29681702537468      -0.03419725181027       0.79368665717706
H        -0.70620245166382      -1.71909142201537      -0.74565773971747
H        -1.28710209098235      -0.14840212683512      -1.36207064490099
H         0.33553025945164       1.02489700211468       0.15514027528860
H         0.80121514890353      -0.54516672700139       0.86645959421969
H        -1.46068185674244      -1.16674020342915       1.53216549887084
H        -2.05532191483247       0.42187279293033       0.99573202194677
H         1.47438817606407       0.45876463596243      -1.94959296072789
H         1.44828912456900      -1.28310175468777      -1.53580778498338
H        -3.65931622894717      -0.72103150836374      -0.57269984391535
H        -3.05630029966109      -2.29555966960879      -0.02888170739122
H        -4.43303808249186      -0.21343404815994       1.78971599140116
H        -5.19261570539569      -1.69589309194132       1.16202705949879
H        -3.83894762118987      -1.80688300592930       2.31260825677853
H         3.23784273234076      -2.19888926059011      -0.82050681731413
H         2.59665784035746       1.83576566206270      -0.10090676584238
H         5.44575558717472      -2.14921293274845       0.32706579364666
H         4.77556014423704       2.05002151751288       1.12160390316887
H         6.23615358796256       0.01480809067241       1.34473447911490
P         1.87816087722846      -3.30361064465850       1.83487540818825
F         1.37512993760547      -4.84628088125371       1.65761331346067
F         1.41844583433982      -2.98262990227695       0.23582981920711
F         0.38171956323492      -2.82585333633326       2.33153071598526
F         2.39696525381423      -1.70442392928934       1.95834183453977
F         2.36100175990371      -3.57398323443455       3.37066952291700
F         3.39271760611515      -3.70471418785873       1.26021376540786
