37
C13H18F3NO2 optimized with DFTB in AMS.
N         0.75161318099777       0.14786638817069      -0.89926143245915
C        -2.44455206530521      -1.72906808011964      -0.01444770987340
C        -1.16486838946262      -0.92146460013478       0.22762064937585
C        -3.35361113733620      -1.72267539854247       1.22166522338787
C        -0.38585679664311      -0.76201825131440      -1.08074671040024
C        -4.14443206926870      -0.41578686305654       1.35425486798324
C        -4.98151752874175      -0.40540078000763       2.63171786931513
C         2.00651156390138      -0.32080327161545      -0.98745268883533
C         0.50787407118980       1.44645990177463      -0.66274296557455
C         3.08371878919157       0.52514647945911      -0.83689477586116
C         1.55751567638800       2.33200965250275      -0.51077163369284
C         2.86384690840778       1.87721791159972      -0.59673609399962
H        -2.17533570839186      -2.76020723980095      -0.26720196578267
H        -2.98687630283415      -1.30527130413010      -0.86586627777097
H        -1.42299842493848       0.06865003372598       0.60877347509812
H        -0.53347838958807      -1.42095308446650       0.97009145685910
H        -4.05741698667512      -2.55768838921156       1.13867871668260
H        -2.74951407690518      -1.88886732529490       2.12113845078307
H        -1.02304689825228      -0.31172770212008      -1.85115155930493
H        -0.00411414328778      -1.72305579201602      -1.43334994300220
H        -3.46432404447568       0.44115110576495       1.36077893563900
H        -4.80262850897015      -0.30587028277966       0.48726461969202
H        -4.33995337846384      -0.47086762248351       3.51256452981928
H        -5.55664261469221       0.51867831365933       2.68992319143146
H        -5.67457918620860      -1.24842504460006       2.64517546092118
H         2.12670127910178      -1.37929504193367      -1.18487757027725
H        -0.53920100935612       1.75869245348837      -0.59571348024789
H         4.08712948561098       0.12569023483197      -0.91183938706195
H         1.33976620296325       3.37655519665386      -0.32820340686493
H         3.69930529180482       2.55681777408249      -0.48049967940652
C        -2.66731206870272       1.69114874689753      -1.48923178067303
O        -1.91193407342689       1.41450526848237      -2.42314517429049
O        -2.39918251947847       1.94031268749466      -0.30945505329915
C        -4.22555405211275       1.64456721880626      -1.83960378153282
F        -4.62509096221061       0.35277435019021      -1.92325608739347
F        -4.52038955017470       2.21963348764135      -3.01231185101745
F        -4.99158521335391       2.22281190790168      -0.90616386626593
