61
C17H24F18NP optimized with ForceField in AMS.
N        -1.41453943954271       0.21199773567210      -0.06156918114612
C        -1.66302582264531      -1.00171117995746      -0.89920931532390
C        -2.53245625106983       0.23053944864688       0.93134319950780
C        -0.10800431568758       0.08433176292494       0.66257690531792
C        -3.04408780585473      -1.53303617064266      -0.56712837692299
C        -3.25403400255599      -1.10095776541307       0.85615476965288
C        -1.46970510475029       1.43477741530101      -0.92649859638271
C         1.13611482423696       0.07303323491802      -0.25799767963324
C        -1.20692690160537       2.75627300391318      -0.18154109638764
C         2.40054933828781      -0.27939737065195       0.53506976495931
C         3.62991492130967      -0.31040222661442      -0.37931812308437
C         4.89398572811032      -0.65165847405379       0.40339461775233
H        -1.58606343750499      -0.80578427204218      -1.99327265126447
H        -0.94223088070564      -1.82195587534642      -0.67629737793718
H        -2.19243905688958       0.41887146907891       1.97531820533484
H        -3.28680688680867       1.01803968099916       0.70077690367938
H         0.01288558196729       0.90996986713125       1.39863212650927
H        -0.11094715529615      -0.85257444360835       1.26750995801096
H        -3.80248683693131      -1.05218759240427      -1.22428268991261
H        -3.10251344244888      -2.63841077458689      -0.67309191579462
H        -2.77546097531027      -1.83001734657140       1.54747658868889
H        -4.33431976274602      -1.00480576525874       1.10081044918102
H        -2.46987342317129       1.50960248931907      -1.41238178679313
H        -0.74113681034496       1.36066993965771      -1.76349931886080
H         1.27995821127161       1.07564920510433      -0.71229598400476
H         1.00981805437666      -0.66356229767193      -1.07870211813450
H        -1.84812134046394       2.85588049480350       0.71755784683934
H        -0.14283388314979       2.84131305065194       0.11821250620009
H        -1.43058667322045       3.60637970308864      -0.85967954303928
H         2.27336784327275      -1.27773891960547       1.00901105908118
H         2.55424464040598       0.47642170851746       1.33682592725744
H         3.48111944503795      -1.07515479483758      -1.17158243492995
H         3.76370979349583       0.68065934123081      -0.86538531388909
H         5.76452564043168      -0.66763905518628      -0.28592155264856
H         5.07793025494894       0.11019847073587       1.19059734956372
H         4.79697334153481      -1.65225297442995       0.87619144162099
P         5.56829592309031       0.56585049153835      -6.62581179832095
F         4.77474006522337       1.36644644586638      -7.93121816168518
F         7.21262073858285       1.07589187175360      -6.55497930554993
F         3.88280013961466       0.23854630263660      -6.51345674103692
C         5.49255415734903       2.34479735483163      -5.86978804362430
C         6.17046208443452      -0.35696461245346      -8.21744176223527
C         5.60340748398179      -0.83814816635475      -5.31496814186942
C         4.08810358153268       2.85435733451669      -5.48066878751163
C         7.26984159178962      -1.43594021073012      -8.04505240312001
C         4.93224242286451      -0.56924120294044      -3.95603509918432
F         6.00303406777194       3.24879633539316      -6.79418231516707
F         6.29588877904295       2.42872151165340      -4.74314710140417
F         6.68210661409909       0.56882497473261      -9.12146284220320
F         5.08049358377846      -0.97614739788235      -8.81067039791427
F         6.92520668388868      -1.15430975429463      -5.05679471750291
F         4.98743184603138      -1.96153394464476      -5.84259016645851
F         4.19422770645854       4.15890739873388      -5.03121733110338
F         3.54444170042001       2.09921386879505      -4.46400160065677
F         3.22676274183363       2.84592502164104      -6.56242875112791
F         7.71956526613815      -1.81205771015687      -9.29864650714893
F         8.35768680137045      -0.96435208531022      -7.33508071221213
F         6.78132498868995      -2.57107376270861      -7.43143825249011
F         5.44392962170069       0.55647480682327      -3.34873187276633
F         5.18512914341811      -1.64517680495692      -3.12327241645886
F         3.56056355811012      -0.45500560069447      -4.08600442811493
