46
C12H26F6NP optimized with ForceField in AMS.
N        -1.63118173491299      -0.29115942141398      -0.18464866126197
C        -1.91140984257413       1.12223857194597       0.21495739519509
C        -2.64199833050559      -1.21285040016430       0.42570125298505
C        -0.29429093643072      -0.71254506640207       0.35111152394598
C        -3.35500414532247       1.56765593992561      -0.07234871236059
C        -4.10551540444243      -0.80993797741757       0.16754572946917
C        -4.35660032371143       0.63175030381207       0.59348687111066
C        -1.64190752295183      -0.43767168414938      -1.66629792406551
C         0.92769702446567       0.06754637651508      -0.19351739315362
C         2.22308516125836      -0.46340573250159       0.43402762021381
C         3.45250055373077       0.26325826974441      -0.12340553470456
C         4.73990260746426      -0.28716515966489       0.50094304372170
C         5.97314895757000       0.41994230066153      -0.05062105791116
H        -1.24194416273064       1.82720688585097      -0.32334449533785
H        -1.72112239667863       1.25957809718321       1.30455112482187
H        -2.50813950272809      -1.25378139602325       1.53208419614601
H        -2.49758476245485      -2.25252923989225       0.05196311702966
H        -0.28472934993847      -0.61445348636242       1.46206335061005
H        -0.12693016570866      -1.79411161115175       0.13506434444770
H        -3.50406529494036       2.59347584988626       0.32778897738641
H        -3.53899573888497       1.60960259867003      -1.16634051984681
H        -4.37903680307556      -0.94949439759833      -0.89834161675026
H        -4.77161432664203      -1.47613676080684       0.75696151437684
H        -4.26785046637806       0.71478444814713       1.69956463143373
H        -5.38799626946656       0.92820492227581       0.30514325178828
H        -1.01169860092768       0.33349028925125      -2.15792021356079
H        -1.27427461280250      -1.44252103985944      -1.97257923165270
H        -2.65411305655821      -0.31390688744087      -2.09630220507524
H         1.00412434577721      -0.05265088280496      -1.29345176931794
H         0.84097531429619       1.14611834244904       0.04964804199965
H         2.18153197187313      -0.32206365178457       1.53662052462825
H         2.31536237721031      -1.55137263505452       0.22099909409104
H         3.36981159731031       1.35041783565100       0.09804478900885
H         3.49190479567219       0.12776564112865      -1.22702895855267
H         4.82676036823075      -1.37430025204711       0.28496993514390
H         4.71132402832950      -0.14734501528178       1.60336722288410
H         6.05614188236827       0.25528915787044      -1.14626037430978
H         5.92134771344718       1.51018090189640       0.15578997848112
H         6.87970693275984       0.00857610689260       0.44133953001914
P        10.54621837237208      -0.65883014133787      -1.16309249171716
F        11.24298215846227       0.75259769417869      -1.85174529846227
F        12.07439707218393      -1.43157151067034      -1.30355299241587
F        10.93992840437903      -0.11071460805281       0.41711723402146
F         9.84267742340495      -2.05218531731416      -0.44448758016122
F         9.05106735845723       0.18303085772071      -1.10013801305009
F        10.11074979494343      -1.26700401935982      -2.70989104299146
