30
C6H14F2N2O4S2 optimized with DFTB in AMS.
N        -0.67894438740119       0.39504367457474      -0.57796959844551
C        -0.89621997158816       1.85989984105359      -0.34395072568093
C        -1.82651488594726      -0.26520315220422       0.12563148695362
C        -1.48264514051721       1.96424353635498       1.06137655547327
C        -2.08656949203305       0.58429654367065       1.36552636181513
C         0.60539040963029      -0.03801502636372       0.02805582701915
C        -0.67057014392809       0.07085721235401      -2.02826878333228
H        -1.60877092161064       2.20881027495441      -1.09277411738221
H         0.04972385742441       2.38838695400409      -0.46689220715526
H        -1.56590055140200      -1.30067351397363       0.34639740495712
H        -2.68399073872135      -0.24741909514483      -0.54838551740637
H        -2.24968059109690       2.74003682945803       1.08040699261506
H        -0.71096592446404       2.22133122664626       1.79040243416337
H        -1.62324865178063       0.14288420152737       2.25048415811732
H        -3.16132718508983       0.65826269839530       1.53858597015834
H         1.42339545262980       0.49050473700177      -0.45848506391030
H         0.59766596691194       0.19074501666177       1.09141518465278
H         0.72009891829299      -1.11045308638673      -0.11932730655717
H        -1.59282884046312       0.43263418827189      -2.47749404938862
H         0.18767828797057       0.55469508271457      -2.49129583293876
H        -0.60772107037811      -1.00897862765875      -2.14482272750677
N        -4.84908333863451       0.02848755582544      -1.20409882312382
S        -4.40246393625356       1.52830882205759      -1.44918300473120
S        -4.74162821538371      -0.96304100610196      -2.44897179516040
F        -5.65870635385565       2.22742096156925      -2.16276801858752
F        -3.10553740387767      -1.27582857649697      -2.45917391994961
O        -4.30761031076289       2.16354593589856      -0.16769552825109
O        -3.30868683513869       1.74218803350929      -2.36271276148146
O        -4.98624565081430      -0.42899060305117      -3.74338922380112
O        -5.30262021201745      -2.21086254542159      -2.06581048253476
