36
C8H18F2N2O4S2 optimized with DFTB in AMS.
N         0.92203596686400       0.30524428397317      -0.14232654797098
C        -0.42457390888339       0.94051648837987      -0.30942710415702
C         0.68892764823129      -0.72988705876718       0.91602998043498
C        -1.00211144126680       1.02274517632184       1.10091409463906
C        -0.30183070997548      -0.09442366499391       1.88930972227054
C         1.37130577518363      -0.30019283447940      -1.43868494750974
C         1.89535479832350       1.33320469129978       0.31784397187240
C         2.68719873443138      -1.07229920321426      -1.34586680636374
C         2.99074138903770      -1.72610945259090      -2.69233269892298
H        -1.02719307310197       0.28364534848884      -0.94142015383735
H        -0.31165323658504       1.90835708469087      -0.79847531855802
H         1.63396784369307      -0.98709059330934       1.39561834795005
H         0.26478950426926      -1.61074724102782       0.42942889212445
H        -2.08380756433490       0.88221429699711       1.07112011200308
H        -0.79776253860111       1.99760905210172       1.54756415534502
H         0.22282545481044       0.31593541061490       2.75413002459254
H        -1.01191363710304      -0.84345293733988       2.24243305983436
H         1.45759465736651       0.52082811970575      -2.15646189502708
H         0.57121491460607      -0.96890297090570      -1.76970487550501
H         1.95837824157210       2.11657054254342      -0.43542355621192
H         1.55677084219916       1.74991512689538       1.26270741599999
H         2.87209740791132       0.87915543218198       0.45573924719720
H         3.50753810975551      -0.40265709046303      -1.08002094535783
H         2.61939132183116      -1.84411073469324      -0.57620441400781
H         3.93440679878771      -2.26542706922213      -2.62421850673156
H         2.20456877729154      -2.43111579849224      -2.96563816478415
H         3.07525329110452      -0.97327991932072      -3.47708376612622
N         3.12180826791037      -0.47414813441782       2.81313034873113
S         4.30364780965052      -1.06218852545501       1.93277030475089
S         3.27690897730805       0.95207209998471       3.49692443638285
F         5.51246738413841      -1.35689875042953       2.94152413806744
F         3.80146073945148       1.94476106025748       2.31163030709362
O         3.86591892999189      -2.34446004558741       1.47309599877826
O         4.84499633436610      -0.16046766811398       0.95726926723233
O         4.26247175077004       1.06368543370358       4.51443170066018
O         1.94553792609498       1.41876118498311       3.75300129581103
