47
C13H13F18N2P optimized with ADF in AMS.
N         1.74763139247044      -0.65094404990640      -0.42943961306751
N         0.20734894141267      -1.47435113116621      -1.71604854257042
C         2.78967574419899       0.24507872658869       0.09802501556038
C         2.19783246025656       1.34135437798202       0.97800225330371
C         1.15897538540126      -0.53259659084371      -1.62527735774490
C         1.16387283707819      -1.69349712446485       0.25781480527280
C         0.19909923087613      -2.21770112740794      -0.55189908415731
C         1.26903377182704       2.28314430693327       0.21820906176155
C        -0.64684278470834      -1.71192192456770      -2.87741146057642
H         3.31376976147810       0.66129797712793      -0.76832388502183
H         3.50658587806919      -0.38780044494697       0.64083573787089
H         1.67549252329291       0.89020938854167       1.84087786087794
H         3.05457645221925       1.90446255270732       1.38613888175086
H         1.45028736043350       0.16453157050482      -2.40387485264663
H         1.49236344354948      -1.97814124722552       1.24967812217856
H        -0.47440509840812      -3.05409033545215      -0.41139054045074
H         0.37940040340645       1.75725090413722      -0.16400811751065
H         1.79021467636008       2.74339089228705      -0.63449720530784
H         0.91213622070060       3.09253330743333       0.87251464753680
H        -0.57652001551284      -0.85028478943435      -3.54842412346745
H        -0.30364907256679      -2.60863505508006      -3.40748418071236
H        -1.68204785346824      -1.83512061983852      -2.53690655940373
P         4.76693072670360       0.35017399276529      -3.92211850607538
F         5.89644169626637      -0.83774882293932      -3.67980314788221
F         3.66624744750280      -0.37412319406324      -2.84318469956935
F         5.77728322445078       1.13077730147148      -4.97052477619098
C         5.61233819185650       1.16742969748654      -2.33771121309399
C         4.03217621250939      -0.88853291401669      -5.36916830955957
C         3.40727465991446       1.80226296487488      -4.37063753440229
C         7.05104753286374       1.75771522366799      -2.46312291841558
C         2.51955146347173      -1.13118176979436      -5.70729537618263
C         3.43381120399647       3.31513551765691      -3.95840947589842
F         5.71374032446788       0.20826588627462      -1.34391930357281
F         4.83919162885281       2.17853623483358      -1.78211865949208
F         4.42004544048214      -2.16909688284225      -5.01578973690564
F         4.62556892684478      -0.60390801577250      -6.57498134077009
F         2.11203607337675       1.39579224203656      -3.99693113509309
F         3.42011887168690       1.85003461197745      -5.74234779167744
F         7.46593195076980       2.16272345921800      -1.22352021310386
F         7.08908989035242       2.83465933622001      -3.27559888571228
F         7.93080567264207       0.83939633298761      -2.91049874773662
F         2.42231547682804      -2.18951647447008      -6.55869393214610
F         1.81333132948033      -1.46679420105562      -4.57916075281019
F         1.88493057836359      -0.09874040351708      -6.29665200285064
F         2.90994769005759       3.51728291270647      -2.71791649819388
F         2.65341627897393       4.02946339237639      -4.81838020801857
F         4.67607819261863       3.82895707130844      -4.00512351252203
