60
C18H36F3NO2 optimized with ForceField in AMS.
N         0.00217995762542       0.00224070751999       0.00202386906581
C         0.84277014092008      -1.03715639089149       0.69700514743392
C        -0.86855864992129       0.68031082565803       1.02777030473694
C        -0.82616281880528      -0.68269846559086      -1.05421443501664
C         0.85986112265202       1.04737759546963      -0.66285494316095
C         1.89407939837332      -0.50482256614190       1.70521000068290
C        -1.93380368836901       1.66255646208065       0.47264567487785
C        -1.89904354132085      -1.67769513183630      -0.53815206308042
C         1.94525456556812       0.51861610368494      -1.63626106865654
C         2.66256837295786      -1.67209067849828       2.34200666437037
C        -2.74294131155750       2.28621460201926       1.61779493845188
C        -2.65673794699019      -2.31221264310549      -1.71233202214649
C         2.73479334356465       1.68406483891568      -2.24773587746009
C         3.69942910140056      -1.18079460343915       3.34816737168630
C        -3.78684241378435       3.26694301721712       1.08987686532767
C        -3.70648870824429      -3.30658169907867      -1.22312114167620
C         3.79575808687168       1.18345099187121      -3.22413190897668
H         1.36659053057999      -1.67662703045704      -0.04819698134192
H         0.19256415884833      -1.72865374039075       1.27383363454970
H        -0.24135030937703       1.27214840022872       1.72837705144983
H        -1.38570631229811      -0.07479903547181       1.66093583102256
H        -0.16978728658546      -1.26783255082633      -1.73301509290958
H        -1.32795549361206       0.06790512911782      -1.70483183421808
H         1.35608574736423       1.68820779516525       0.10009826233037
H         0.22562409721393       1.73668231957710      -1.25999684277626
H         1.39873362481188       0.06116848081406       2.51976549383627
H         2.62636066994625       0.15983021786448       1.20372720169251
H        -2.64107707921920       1.14289829491728      -0.20469296677251
H        -1.44869959543273       2.48757555962026      -0.08692073567807
H        -2.63667617047067      -1.16653749537947       0.11272752612351
H        -1.42488128916120      -2.49695519270824       0.03891786805932
H         1.47915476891302      -0.04707593651394      -2.46813550695768
H         2.66119005952651      -0.14585548070222      -1.11199237407755
H         3.18182217598453      -2.25532370287754       1.55070434795834
H         1.95161512159570      -2.34689315511319       2.86736850810158
H        -2.06044756437881       2.82969906418918       2.30746516055202
H        -3.26028070265533       1.48659957507338       2.19157689127862
H        -1.94197685557982      -2.84721581358687      -2.37554834097632
H        -3.16239198904776      -1.51973609419653      -2.30600290040716
H         3.23413569492855       2.26433914878274      -1.44130963824518
H         2.04209877723508       2.36257106218824      -2.79258452985715
H         3.20332387437245      -0.63051757987962       4.17574375335896
H         4.43734265425870      -0.51677111325643       2.84965775275492
H         4.23956570872483      -2.04980176142385       3.77868851286149
H        -4.50535000358829       2.74405722255616       0.42340623135015
H        -3.29520199757316       4.08923933490206       0.52740571539499
H        -4.34737578531898       3.70634236640175       1.94155150699268
H        -4.45608333976114      -2.79306346354639      -0.58425519229293
H        -3.22528483001276      -4.12224375962536      -0.64222788490160
H        -4.22892677357914      -3.75358128656196      -2.09483739224809
H         3.32113708639673       0.61565381305765      -4.05279199616333
H         4.52406197653361       0.52895102755636      -2.69983450265370
H         4.34136253578204       2.04896946357020      -3.65516887028486
C         3.76036676723322       4.09660920614160       2.62924629007043
O         3.53314284754925       3.68905014126516       1.50099890123636
O         4.07679125532332       5.26311765782194       2.79757662134956
C         3.65449429101861       3.17437138312884       3.80644937670108
F         4.88425089923534       3.07715160582106       4.43104437115427
F         3.25564476519333       1.91644545175170       3.39740731154584
F         2.72556167634131       3.67027762495016       4.70220437687699
