60
C16H36F6NP optimized with ForceField in AMS.
N         0.00005683389209       0.00106658937421       0.00142590663686
C         0.84666383241955      -1.02964152395778       0.70332741346947
C        -0.87226844887932       0.68184421374047       1.02476982856900
C        -0.82584506028875      -0.69434992614211      -1.05024600182273
C         0.85150398993675       1.04640308533403      -0.67216867884131
C         1.89748004405754      -0.48190293320754       1.70471079185930
C        -1.94050946619768       1.65921594248464       0.46709954354332
C        -1.89568927621738      -1.68948539735303      -0.52861676396250
C         1.93746141248370       0.51695048177050      -1.64505403662318
C         2.67127704168017      -1.63485619856554       2.35921818215855
C        -2.74761277415820       2.28745968033838       1.61145142512135
C        -2.65145979800561      -2.33213444007282      -1.69991169595474
C         2.71975251576580       1.68214111209283      -2.26667376712571
C         3.70536548205698      -1.11543655552610       3.35496993830228
C        -3.79401152108272       3.26463888702366       1.08140961321270
C        -3.70011417022423      -3.32569111220506      -1.20613584791882
C         3.77372311440510       1.17980808353602      -3.24968033993250
H         1.37220211596201      -1.67345077031261      -0.03721919246453
H         0.20026664680493      -1.72075877094594       1.28586267062108
H        -0.24644551995372       1.27909237874536       1.72217150499159
H        -1.38592766966534      -0.07137443886252       1.66338962637849
H        -0.16700025733373      -1.28146872399592      -1.72552817678325
H        -1.32997931792050       0.05008707274988      -1.70653434799007
H         1.34560669740017       1.69536496705558       0.08534611509496
H         0.21260418735360       1.72971599650541      -1.27174164748040
H         1.40251569847150       0.09416665534784       2.51189547993116
H         2.62749490653879       0.17685330821629       1.19296744177562
H        -2.64760743882482       1.13361127634549      -0.20549556538766
H        -1.45772034226493       2.48226645611106      -0.09677910423691
H        -2.63470450474742      -1.17547587989653       0.11812961882724
H        -1.41839898025865      -2.50336461734435       0.05307784932507
H         1.47211134205001      -0.05647832867453      -2.47151974850807
H         2.65774278992683      -0.13970911269034      -1.11706188737539
H         3.19141677354707      -2.22920982157503       1.57666622313536
H         1.96373965510422      -2.30437742947055       2.89600373138859
H        -2.06343366128271       2.83418923601498       2.29696863885192
H        -3.26052384523370       1.48893003328785       2.19059197534863
H        -1.93466864937789      -2.86824303074358      -2.36004481466010
H        -3.15642571175036      -1.54267560830421      -2.29818487592807
H         3.22253722509093       2.26536179117676      -1.46461955123064
H         2.02142754058765       2.35788640436673      -2.80757393250525
H         3.20862910858816      -0.53298860652218       4.15999670715770
H         4.44700370350269      -0.46929054938561       2.83920818472143
H         4.24069987836529      -1.97128425336745       3.81702147913248
H        -4.51242552869094       2.73822114058401       0.41783170994732
H        -3.30481804999664       4.08508315353789       0.51423356504960
H        -4.35447236475046       3.70783624975664       1.93106868145204
H        -4.45021979848921      -2.81039588795462      -0.56946359539527
H        -3.21826036857012      -4.13763636204870      -0.62078124622813
H        -4.22267297409242      -3.77856749571500      -2.07467009405381
H         3.29225115897914       0.62625581126685      -4.08366537159875
H         4.49012358342814       0.50845379111525      -2.73353695068332
H         4.33330412135062       2.04089787975561      -3.67140217255806
P         8.04024830466771       0.16094911084957      -2.77598379172806
F         7.66905229746367       1.83329337121555      -2.63703573428457
F         6.77228831355209      -0.23236871085734      -1.68542286042329
F         6.98422632504012       0.09185861843761      -4.13028907156877
F         8.35313997590135      -1.51815536340718      -2.96441289254115
F         9.38960375258190       0.50778690189378      -3.78211847863823
F         9.09775703090116       0.26060535847343      -1.42535959336988
