58
C16H34F6NP optimized with ADF in AMS.
N         0.34229513147234       1.84945930535098      -0.10964669328534
C        -0.25893645992532       2.82403796916947      -1.14017857117000
C         1.09250537858806       2.74976507168202       0.87381653351011
C        -0.76319951590895       1.12436234624635       0.62808861454219
C         1.29612377514835       0.88499154398744      -0.79412265754257
C        -0.04724633222256       4.24018401828913      -0.59000489241666
C         0.30833240490778       4.04697751450931       0.88860703644872
C        -1.54739002077198       0.12108734787299      -0.20269919363512
C         2.00275640102787      -0.07179899650496       0.15068614356440
C        -2.77224917460483      -0.37901608102138       0.56678498724447
C         3.12980318834554      -0.80287580386894      -0.58722999066194
C        -3.57471058066304      -1.41634998333490      -0.21707703153392
C         3.88861378378842      -1.77730405926555       0.31365491740534
C        -4.79996390754380      -1.92019974430037       0.54350179587273
C         5.05851289240462      -2.45780428903668      -0.39745044563423
C        -5.60195833135035      -2.95322378485703      -0.24492786568416
C         5.81256807500794      -3.43869486031139       0.49890771941707
H         0.26764881973575       2.66811158661978      -2.08866624835339
H        -1.31653087905416       2.55993666345938      -1.25735781087205
H         1.16507667919358       2.23517044314059       1.83981877558710
H         2.09454956847863       2.91348095353284       0.45350642054411
H        -0.29229563565334       0.62179938841961       1.48571642049083
H        -1.42920858334391       1.90791268505616       1.02053853658922
H         0.70703475846170       0.34464957902693      -1.54997300080332
H         2.02494164054154       1.52705491101348      -1.30769788489481
H         0.80477580109718       4.70271281306032      -1.10819471655961
H        -0.93959925681189       4.86641250973380      -0.73570325821271
H        -0.58905802075448       3.97601070135861       1.52501405541473
H         0.93672643091779       4.86517130850152       1.26980269016849
H        -1.87950700073337       0.56983604081732      -1.15427511409424
H        -0.90882141706478      -0.73947458762327      -0.46140137054596
H         2.45015278610981       0.48974694667667       0.98735508388600
H         1.29963482560444      -0.80937478922972       0.57776841296019
H        -2.45107421471708      -0.81770455271649       1.52972183767977
H        -3.42668200798993       0.47704987216291       0.81583675631388
H         3.82799829731540      -0.04785437994705      -0.98839083594208
H         2.71447127048848      -1.35089860983096      -1.45346834016974
H        -3.89714259897274      -0.97850283085570      -1.18062123145198
H        -2.92138435301153      -2.27316061200985      -0.46776157173502
H         4.27255900023590      -1.23113348214231       1.19592001124514
H         3.19532570194494      -2.54973389972078       0.69938729573119
H        -5.44647729914906      -1.06003364624235       0.79676903729224
H        -4.47292740188907      -2.35561954730089       1.50541296403356
H         4.68172758863481      -2.98600284467232      -1.29238348226902
H         5.75184159681224      -1.68063271070650      -0.76612585407735
H        -5.96487841585479      -2.52907454817192      -1.19490574459351
H        -6.47753940082975      -3.30371217546506       0.32238156705012
H        -4.98359026386801      -3.83257207372618      -0.48637130447125
H         5.14795311044422      -4.24167644682347       0.85760163314840
H         6.65052213290897      -3.91178486016382      -0.03675405180985
H         6.22734075672497      -2.92768302827657       1.38294246033852
P         4.05082526350737       3.88273693982623      -1.59718950331089
F         5.46920049679347       4.33300827511468      -0.92522551327403
F         3.99800144739265       2.52856736017271      -0.59175951639818
F         3.20753907677995       4.72144969111729      -0.41884781804728
F         2.56170894469012       3.38954824271566      -2.23768539018558
F         4.01776534693528       5.19933389388481      -2.56692938570394
F         4.81375533904858       2.99110465030745      -2.74142124723883
