37
C9H13F6N3O4S2 optimized with DFTB in AMS.
N         0.51060332325054      -0.66289691382150      -0.76648842336277
N        -1.58796200348930      -0.18577005888955      -0.83144100202549
C         1.94191192393393      -0.63956812719035      -1.06106618317785
C         2.76503563286242      -0.57501766830250       0.22360469729887
C        -0.37877595510365       0.22010305589325      -1.21388109754318
C        -0.14716085554952      -1.66646834656365      -0.10441739299875
C        -1.47091755067328      -1.36968590508772      -0.15235444590228
C         2.49308860200271       0.70633619923328       1.00940912810346
C        -2.84503500768425       0.39935050880225      -1.26706371186673
H         2.13146443238439       0.23099493923266      -1.69247994643542
H         2.17268588451228      -1.54407394733958      -1.63151456473227
H         2.54544266888333      -1.44653204402902       0.84730207947970
H         3.82085488309229      -0.61889446245074      -0.05663535698909
H        -0.15412931392351       1.09756221364652      -1.79576009035672
H         0.37035159677177      -2.50963702978786       0.31704457674557
H        -2.32984501688879      -1.89896363433123       0.22055383439435
H         1.44551786225624       0.75577173156032       1.30999321356992
H         2.72216398491223       1.58241500209375       0.40177691974224
H         3.11315694306524       0.73153988101069       1.90481147003002
H        -2.65006067579289       1.38304135755937      -1.68919871821583
H        -3.27670050197597      -0.25418880049813      -2.02791935178610
H        -3.52149147573736       0.47993884647090      -0.41717721495161
N        -0.73563881001189      -0.78537611524919      -3.56772917163086
S        -1.46722760731281      -2.18509816846641      -3.86353881195588
S         0.68411485688373      -0.48194096437495      -4.24897871641569
C        -0.37855080043393      -3.61754816787334      -3.31325235549368
C         0.47585715584640      -0.24903678925623      -6.09772657352239
O        -2.57037361960207      -2.23051456126125      -2.92651592688026
O        -1.73374165055797      -2.43796433056919      -5.25431916472313
O         1.65740226143617      -1.54091952687400      -4.09004403672006
O         1.05708253012522       0.83076287376071      -3.75623837598597
F        -1.16282019835253      -4.60438532926591      -2.90812722107872
F         0.37940035642161      -3.24974424459250      -2.27594138644910
F         0.39418648488543      -4.04976762009604      -4.28294076377371
F         1.43383007262711       0.55397082019842      -6.52870057248050
F        -0.69651686413988       0.30851237565052      -6.34477202671482
F         0.56202694227658      -1.40193151674179      -6.72474941069529
