39
C9H20F2N2O4S2 optimized with DFTB in AMS.
N         0.10863017587328      -0.49692471666410       0.31292064738695
C        -0.70294309946491      -0.61413057684864      -0.94993711671591
C        -0.25669834561018      -1.59796681273318       1.26566067515801
C         1.55282358030255      -0.65176326228811      -0.09392171202406
C        -2.20361115923816      -0.68472319545520      -0.70205283782590
C        -1.75164455351286      -1.66422265101053       1.55079430906605
C        -2.54911934817139      -1.81990049135852       0.25833532090575
C        -0.10641581746510       0.83612509487730       0.93150960680766
C         2.58072798091222      -0.43607228325250       1.01272955637878
C         3.97305619478415      -0.70673453404774       0.43901547860770
H        -0.37202524355996      -1.51954954234619      -1.45977270526169
H        -0.45245167741483       0.24818796735132      -1.57183628476747
H         0.29953406535853      -1.43117262424150       2.19012748317535
H         0.07649790184039      -2.53412622559838       0.81361384463282
H         1.72820495014147       0.05126100602174      -0.91195529477976
H         1.64849311862927      -1.66785488151145      -0.48172052785966
H        -2.67587187906272      -0.86636603866136      -1.67079692831341
H        -2.58306156316742       0.26783234544682      -0.31890694203624
H        -2.07952099357809      -0.77512292607125       2.09842616349888
H        -1.91638575806685      -2.53346275814473       2.19263441180741
H        -3.61834134445741      -1.80140411111316       0.48115155401411
H        -2.31155441407170      -2.78008757195841      -0.20568865637526
H         0.40636984526727       0.87697183455570       1.88971849121252
H         0.28939279153570       1.59920601637057       0.26363202943364
H        -1.16962012529301       1.00077702937861       1.08540715267978
H         2.53815807094395       0.58907706528629       1.39210467253102
H         2.39549591795096      -1.11852997705745       1.84650359586941
H         4.03162447518678      -1.72006988692240       0.04289166247205
H         4.19430485616469      -0.00759274452537      -0.36745658051694
H         4.72160614355377      -0.58881272235127       1.22145589079608
N         1.41914074442926      -3.74986669195630      -1.14794997719388
S         2.14587262868955      -3.25754155883724      -2.47588222362159
S        -0.06652724397236      -4.29940263410213      -1.29742300954872
F         1.34182879344492      -1.84956909382707      -2.80830833059127
F         0.08505136096630      -5.73960401414059      -1.98226634923544
O         3.44206877052214      -2.79669702248101      -2.09566420787412
O         1.98212523813215      -4.03763243020994      -3.65124388160838
O        -0.93084387742968      -3.56168369878805      -2.17231764798602
O        -0.54244755299271      -4.56562812268454       0.02812841100174
