42
C10H22F2N2O4S2 optimized with ADF in AMS.
N        -1.11413083339183       0.05968484513828       0.36317706158819
C        -1.61551953433940      -1.01407699484788      -0.61500520145952
C        -2.03898610880353      -0.06127017888374       1.56612204740658
C         0.32170138234426      -0.16666288445838       0.79683850339380
C        -3.03653989778320      -1.38010294436807      -0.16030098661873
C        -3.39187260719989      -0.40332376722390       0.97467066326675
C        -1.27146732258104       1.41082652424609      -0.25222641043263
C         1.33374542936947      -0.20828883665212      -0.33136293625919
C         2.72316973286677      -0.51508286774071       0.23648897540765
C         3.75981441416193      -0.71830395375233      -0.86548222301802
C         5.14527189703486      -1.02551279671160      -0.30493349700459
H        -0.94219860163874      -1.87426039592446      -0.53638966479346
H        -1.55531750983433      -0.59058188263314      -1.62582186469741
H        -1.98574001040164       0.87081091453333       2.14575949779506
H        -1.66186885861380      -0.89521198491355       2.17095382384909
H         0.31392729159944      -1.12009257303838       1.34281770469368
H         0.55023762030078       0.63703451314128       1.51661964662763
H        -3.01508962959892      -2.40498958180369       0.23785887926280
H        -3.75593079220391      -1.33706797829931      -0.98990812713981
H        -3.91182110227298       0.49520928395547       0.60455503820363
H        -4.02875733266020      -0.87690963038110       1.73520485475929
H        -0.66090890707396       1.46423272872671      -1.16004769248143
H        -2.32636866742143       1.56310842805911      -0.50832457126615
H        -0.94225755014422       2.17020303189680       0.46908100830223
H         1.06760820396884      -1.00913277652743      -1.04088564493262
H         1.37014522379954       0.74716693447660      -0.88327948070541
H         2.66699969589062      -1.43046459033046       0.85038391796892
H         3.04332927508784       0.30632359400732       0.90518552830053
H         3.80347795865780       0.18202944590475      -1.50606986984917
H         3.42618834167943      -1.55259212119686      -1.50797150942953
H         5.50853023597311      -0.19950430945102       0.32824785619878
H         5.87724723120042      -1.18133115323789      -1.11112558183233
H         5.11957944749081      -1.93694189605376       0.31274398271086
N        -0.79841497206140      -3.44013210673243       1.20997121859521
S         0.66076760789667      -3.92578118620408       0.72277362625399
S        -1.26998249666319      -3.63360530979467       2.73626810067081
F         0.52999613713602      -5.55566944496152       0.67965054306221
F        -0.40753370418255      -2.41554630745962       3.51036671073630
O         0.77407443377538      -3.52037353501092      -0.67096606907741
O         1.75244445404459      -3.65978225654899       1.64152728364014
O        -0.85473489349200      -4.84578160179899       3.40419103654421
O        -2.63883980181641      -3.14734846914476       2.81233006815909
