43
C13H24F3NO2 optimized with ForceField in AMS.
N        -0.21479307128503       0.30410085684739      -0.15647733659037
C        -0.90665915556495       1.28232404294630       0.74659332069588
C        -1.11481376102121       0.00532271916057      -1.31757577471468
C         0.13329198512167      -0.93879105834777       0.61844534041171
C         1.01176379981105       0.96310664446279      -0.72474771767835
C        -2.31583861194127       0.84163139663066       1.19260358775894
C        -2.50959651305456      -0.50287720620343      -0.91636878450897
C        -3.19963568338004       0.50689199582240      -0.00530921656078
C         0.92696280264777      -2.01509800060585      -0.16219372892946
C         2.13365387141906       1.28889988760607       0.29233521016401
C         1.25155964020928      -3.20725016986193       0.73483777941024
C         3.28899520794486       2.01713429034432      -0.38995536012302
H        -0.31730856769223       1.45753441804792       1.67188734727059
H        -1.01303485620946       2.27046634786885       0.24169834374934
H        -1.27106871821422       0.92867713807253      -1.92150963277470
H        -0.65410150194306      -0.72195365611059      -2.01758966812945
H         0.70885996690174      -0.67113389895364       1.53147813455367
H        -0.77825445475830      -1.43169051528673       1.00827699177960
H         1.44902410548157       0.33826442264363      -1.53514582518979
H         0.72946991014604       1.91785610268907      -1.22702633982298
H        -2.26080037540897      -0.02641580267482       1.88198633417924
H        -2.78713999266260       1.67154882282075       1.76257722561720
H        -3.12291710017468      -0.63439094076149      -1.83392548402829
H        -2.45187211837234      -1.49615847406944      -0.42553208640860
H        -4.16588485705152       0.08860032184137       0.35024328608923
H        -3.41665296555547       1.43613591872927      -0.57747632411183
H         0.33606680587843      -2.39633261988790      -1.01894353309355
H         1.88748630338367      -1.61158707850010      -0.54008281300029
H         1.75820198559355       1.94283720914790       1.10443474337113
H         2.54291550144953       0.36098772367956       0.74109454644660
H         1.81706298100917      -3.96676345752370       0.15458600693760
H         0.31643694428331      -3.67424413098724       1.11125153856218
H         1.87424461753105      -2.88441526128037       1.59613993400041
H         4.08796548243277       2.22608088138321       0.35246215203207
H         2.94017750260124       2.98251132605368      -0.81489385702692
H         3.71516317143778       1.39053926900517      -1.20213158832568
C        -1.45094337516393       3.30080138415290      -4.78413373700605
O        -0.63890459104443       3.01294304294507      -3.91895907320527
O        -1.22654666817068       4.23737958705661      -5.53396061515647
C        -2.71781026382947       2.51169538473471      -4.93339106983212
F        -3.80569178698572       3.35594025581916      -4.80809596134431
F        -2.79793377544348       1.52865905350105      -3.96315669358343
F        -2.74528984185592       1.91573820314210      -6.18068365988425
