32
C10H15F3N2O2 optimized with DFTB in AMS.
H        -0.43506720413256      -1.08218545203193      -4.63232224028694
H        -0.75357721280099      -2.72014852768725      -3.98383752552849
H         0.77208861400541      -2.37783146837302      -4.84652791802756
C         0.01254474619707      -1.97024575832871      -4.18302817790055
H         3.09902591891339      -0.78073957344075      -0.95528027910238
H         2.63666913848193      -2.30878057149634      -3.21912571346298
H        -0.95350744891689      -0.42916961455024      -2.05736165206170
N         0.64534298038726      -1.56093922107077      -2.93914688838395
C         0.08246802413040      -0.71383403519942      -2.07335193920863
N         1.00756866516491      -0.36822448526997      -1.18028518423987
C         2.19912142436144      -0.95663271678835      -1.51739382561174
C         1.97371453381305      -1.70147535900186      -2.62867500980344
C         0.83403333370197       0.66487891008080      -0.16371816916847
H         1.80258845936379       0.81687769283884       0.31757594521586
H         0.55560325704502       1.58585028284083      -0.68663254555407
C        -0.22510374765138       0.25052278866511       0.85699535318488
H         0.06679794470916      -0.69832323685979       1.31930041232807
H        -1.18205588566856       0.09610281550976       0.34888330717541
C        -0.38167511336948       1.33010196720606       1.93245015307418
H         0.57831647815552       1.48189435386433       2.43685079457211
H        -0.66372207145852       2.27507528664609       1.45728866973536
C        -1.44161823164035       0.93961598772045       2.96026805493012
H        -1.16777277089864       0.00845317797065       3.45824154636723
H        -2.41046898627856       0.80400098784618       2.47788105518897
H        -1.53471777345881       1.72222386204695       3.71306002319725
C         1.17324767556086       1.48430452679221      -3.53297471140732
O         0.02396083749327       1.02763274501407      -3.60941392211577
O         1.78492872919408       1.97898276884437      -2.59829559077318
C         2.03545414068850       1.26572504592898      -4.88107488331108
F         2.16530966860062       2.35486746401478      -5.64681395662106
F         1.47889190683772       0.30221598292217      -5.65231915995085
F         3.27762261046936       0.83012016384578      -4.58843289534948
