46
C14H29NO2 optimized with ForceField in AMS.
N        -1.91371254587647       0.12935496298594      -0.04622175758456
C        -2.12375574117177      -1.09793994591156      -0.87418500877828
C        -3.03928621721398       0.13057227818442       0.93909229529958
C        -0.60823429390507       0.04243369078710       0.68670330827782
C        -3.49856600178668      -1.65490794767504      -0.56015854808602
C        -3.75138510621425      -1.20607395132851       0.85149476276503
C        -1.99576035013686       1.34328067506032      -0.92237502110261
C         0.64108182656161       0.05015279233166      -0.22710457121487
C        -1.74468822523066       2.67526070608134      -0.19169469107342
C         1.91847955740986      -0.17372016101801       0.59045923806271
C         3.15457665706190      -0.20066839636989      -0.31597553738807
C         4.43795281173625      -0.33740105287985       0.50968046356073
C         5.66945077910224      -0.36651599898040      -0.38908016073208
H        -1.39039961316696      -1.90102349572983      -0.63109893826522
H        -2.03146579173375      -0.91289035702499      -1.96876387601426
H        -3.79791549912333       0.91504429306714       0.71315119657908
H        -2.70854604854703       0.31390706658736       1.98702030867599
H        -0.58866302086306      -0.88700367512330       1.30247935873178
H        -0.51333883718892       0.87865348947714       1.41433880817904
H        -3.52658401216829      -2.76315851894287      -0.64692352400766
H        -4.25365970368734      -1.20569377268483      -1.24264110533933
H        -4.83952179808311      -1.11140395362028       1.06023913779714
H        -3.29336631101382      -1.92575660697536       1.56563737687392
H        -1.27607884010044       1.27342584678238      -1.76699633975630
H        -3.00095267834643       1.39916344854512      -1.40034114297790
H         0.56432909624271      -0.74217087173850      -1.00013521236978
H         0.73270485600326       1.02868631515114      -0.74172705378841
H        -1.99310681266771       3.51647093525908      -0.87222479996553
H        -2.37203490556616       2.76970984702717       0.71740353946389
H        -0.67760389112832       2.78230826331666       0.09072649750243
H         1.84641618051491      -1.13900498363986       1.13779372522727
H         2.02266323629611       0.64681030622302       1.33417207376372
H         3.19991512954952       0.73923161347442      -0.90912029445303
H         3.07540058488680      -1.05857652485568      -1.01964684564143
H         4.52543120321514       0.52184728775793       1.20974608199016
H         4.40455842907622      -1.27525391068076       1.10586970258895
H         5.72157028418730       0.55425083953516      -1.00800739009814
H         6.58002849160541      -0.41911904352753       0.23982125848741
H         5.64376881413773      -1.25681848170146      -1.05248517956354
C        10.61967475916660      -1.34324409597210       2.24637208347973
C         9.34927028004328      -1.15067616847866       1.48154145635607
O         8.46671006562210      -1.99123830086735       1.54466082812010
O         9.19179507015707      -0.15528717072071       0.79258837724855
H        10.39539385521875      -1.40544905233354       3.33187589667349
H        11.11178737226285      -2.28326764428139       1.92000323963100
H        11.31447530236278      -0.49420717467226       2.07074379696484
