69
C19H36F6N2O4S2 optimized with ForceField in AMS.
N        -0.52136949910647       1.78623692608032      -0.19544809527053
C        -1.37562854207507       2.32456126890388      -1.30375003628818
C        -0.21278532260044       2.90518314898308       0.75315557918149
C        -1.20219067276011       0.67053574268145       0.54961877551822
C         0.76012082855362       1.32658656861444      -0.83109552299374
C        -2.66863188222957       3.00483837519013      -0.82442971956616
C        -1.46468149240483       3.62836427224738       1.29260953466105
C        -2.34763775481591       4.13137634624305       0.15354666450035
C        -1.51068822042348      -0.60218792889364      -0.27505508295528
C         1.77410578002372       0.62485992082584       0.10593002104614
C        -2.20733690020214      -1.65128361890421       0.60229899558626
C         3.04907400871331       0.25618208129070      -0.66633446287731
C        -2.48952065361003      -2.93459784067001      -0.18639362830636
C         4.05526464366638      -0.47063628724065       0.23366856321524
C        -3.19517752835234      -3.97368447066673       0.69208015779344
C         5.33132271458534      -0.82011189634689      -0.54109207418899
C        -3.46108251923295      -5.26018289093290      -0.08323552618893
C         6.33557440457227      -1.54659702927335       0.34855060166455
H        -0.80680020633699       3.08801448654213      -1.88545980605222
H        -1.63512877726500       1.53636495334530      -2.04054315523884
H         0.35611645399025       2.53686488624376       1.63338740888164
H         0.42585016771890       3.67167742397683       0.25587851418106
H        -0.59505331980884       0.37830334812974       1.43438259200558
H        -2.16388846231027       1.01043436239356       0.97819189225340
H         0.53990418657393       0.63425722054870      -1.66983198036580
H         1.28127158597364       2.19318817154950      -1.30089406777737
H        -3.19579957875796       3.43488378053417      -1.70338996806522
H        -3.36297337138324       2.27188781550373      -0.36483412887488
H        -2.04840999595925       2.96752141828652       1.96646724641721
H        -1.14331438098925       4.49742830686383       1.90593870774286
H        -3.29241849094431       4.54387359273352       0.56834667048261
H        -1.82178559197480       4.94996705144016      -0.38547885831453
H        -2.18593902568472      -0.36284296821690      -1.12086658132860
H        -0.57821782540743      -1.04809271279826      -0.67640596555346
H         1.34176593225798      -0.30973937101641       0.51823761955879
H         2.05507102448146       1.29001688210633       0.94708499482636
H        -3.16744695837492      -1.23498321432185       0.98054724278229
H        -1.56057861422968      -1.89255972221449       1.47468466563077
H         3.51732742750633       1.18271453108400      -1.06596598097257
H         2.78462625927907      -0.40197137214779      -1.52371714004389
H        -3.13237053182739      -2.69533443790377      -1.06216177262942
H        -1.52893216557318      -3.35617721468231      -0.55638327152240
H         4.31549068631672       0.18121842828428       1.09659425300446
H         3.59316841574084      -1.40499241960082       0.62224336968031
H        -2.56264055326707      -4.21074339405746       1.57529749048949
H        -4.16395455521778      -3.56413655748707       1.05293297508831
H         5.07911802464646      -1.47250887302238      -1.40549859669851
H         5.80172582615310       0.11009381249386      -0.92813139828484
H        -3.97037893415343      -5.99312367417164       0.57714904628519
H        -2.50484863943532      -5.70293863339760      -0.43470555091554
H        -4.11434037587060      -5.05527572433298      -0.95795170145361
H         6.62572880212169      -0.90436831798758       1.20716930903465
H         5.89882649382134      -2.49412870881146       0.72970423432655
H         7.24660226637507      -1.78666865585106      -0.23903214736812
N        -0.89017342736001      -1.29565786888403      -6.28188762165545
S         0.71014987770644      -1.62252986870706      -6.14561732233375
S        -1.52518582598017      -0.44593575815138      -7.53150691119132
C         1.48388056797123      -0.34890050703147      -5.17308557124643
C        -2.20697952941558      -1.58310189013319      -8.71973547241823
O         0.88461254127774      -2.93801057946224      -5.44066745840552
O         1.35927903660132      -1.68670130957755      -7.50049102415680
O        -0.47462938694865       0.40350719986160      -8.19207685969582
O        -2.63098252839460       0.43190999914919      -7.01719801182909
F         2.82884313592401      -0.62746724476798      -5.02404653252457
F         0.88715229791478      -0.30319249991036      -3.93032763359815
F         1.33477049726814       0.87465664019809      -5.79703564706820
F        -2.72879975133659      -0.88037375092375      -9.78870563276723
F        -3.21100981586156      -2.32362974473786      -8.12569305355605
F        -1.21690901355318      -2.43464590479198      -9.17093584209631
