56
C16H34BF4N optimized with ForceField in AMS.
N        -0.01666742800607       1.98793877223499       0.00426059841463
C        -0.69206174663404       2.89280304026414      -0.97703306427634
C         0.64224240763288       2.90436927141826       0.98578358885954
C        -1.03344331265757       1.14582563040297       0.71587379870984
C         1.01528253271062       1.16483119087675      -0.70742739152223
C        -0.21967906318277       4.31133349944021      -0.72148720164110
C         0.13501462376406       4.31202840884663       0.73805927044369
C        -1.77254479760230       0.12654608980126      -0.18482732643632
C         1.77313229187130       0.15923925243994       0.19306029202957
C        -2.87437021018178      -0.59293905903261       0.60341805473860
C         2.88895254303836      -0.53610407885284      -0.59639777463335
C        -3.62395151730759      -1.59971613710460      -0.27703994472022
C         3.65563695614855      -1.53515159944178       0.27712565887480
C        -4.68861515384008      -2.34823229544842       0.53409415888628
C         4.73191265327095      -2.25918704489938      -0.54097730452763
C        -5.44278895594237      -3.35065760914819      -0.33436662486385
C         5.50338894008910      -3.25587085757887       0.31863418746861
H        -0.49655961626023       2.61788582920936      -2.03870491843778
H        -1.79948896556215       2.89550363443576      -0.85607409020438
H         0.45911007263002       2.62044722664976       2.04726745943407
H         1.74867301627079       2.93376098760549       0.85864212600610
H        -0.56157751610012       0.59050706895566       1.55629691158015
H        -1.79316975693733       1.80679142732785       1.19522245400936
H         0.55360457995358       0.60117337600784      -1.54799527036532
H         1.76268861432781       1.83969755271876      -1.18701374129394
H         0.68607547074314       4.52431355771008      -1.33171652473251
H        -1.00950160509301       5.05987034485683      -0.95000539690013
H        -0.77569997872645       4.49918420292157       1.34935598786895
H         0.90612154370490       5.07863867859100       0.97049004153631
H        -2.22812919201478       0.63648425252623      -1.05922338371983
H        -1.06263577030129      -0.63993683709172      -0.55877034955577
H         2.21857963882910       0.67709175579322       1.06805257064873
H         1.07809632036114      -0.62146807404357       0.56560000526487
H        -2.41502404590015      -1.12777075443624       1.46364646392116
H        -3.59612097454833       0.15579303843232       0.99745747546070
H         3.59802507498389       0.22807181224319      -0.98059325141028
H         2.44184758953335      -1.07206839840310      -1.46230799433850
H        -4.11235058664204      -1.06005079044732      -1.11804351320733
H        -2.90164695507530      -2.33279242996196      -0.69888098139820
H         4.13564227909771      -0.99244621382544       1.12095846258776
H         2.94631738476317      -2.28323510983773       0.69465270063800
H        -5.41557952333656      -1.62239380224899       0.95894930493688
H        -4.20447641696521      -2.89417660080557       1.37294652037673
H         4.25575690934084      -2.80671707563542      -1.38339932779885
H         5.44600635439232      -1.51800350418019      -0.96145447501597
H        -5.96334161587350      -2.82749092751956      -1.16435906902587
H        -6.20006231209491      -3.87971006236668       0.28176328075527
H        -4.74109059149258      -4.10160308707611      -0.75552809909095
H         4.81412158153500      -4.01993444223329       0.73683501450566
H         6.26636901894928      -3.76971631291359      -0.30326708582159
H         6.01853726766609      -2.73043301870838       1.15052863597941
B         6.27091783839302       1.63431540669256      -2.64006515831981
F         6.54280494023899       1.32020274997885      -1.28180206085050
F         6.89631520179547       0.67657756518067      -3.48185027864413
F         6.77651505321936       2.92779397016947      -2.93763467048565
F         4.86838345772364       1.61372494250996      -2.86061850609733
