61
C17H24F18NP optimized with ADF in AMS.
N         1.94450248054839       1.47498575694626      -0.24936329551758
C         0.43169179316621       1.36800438518673      -0.21762463218790
C         2.37024483552662       1.82933308129760      -1.66911009826657
C         2.55479911856881       0.15952248364326       0.20583684405165
C         2.39260179001481       2.62188264181647       0.65225338293198
C        -0.12899071235937       0.39525819188509      -1.24474444190449
C         1.85891556822640       0.84756791904671      -2.70486731702981
C         0.33649450155787       0.73716951501597      -2.65885462535982
C         4.06787619682263       0.14636085644837       0.32066395265547
C         2.09951960045147       2.44350132778991       2.13264842567325
C         4.54068904144363      -1.25216097626838       0.71482380987640
C         2.57430020413109       3.67751389910194       2.90506451278235
H         0.14618679854159       1.08204550205415       0.80355108244716
H         0.06064366671881       2.38682736897022      -0.41287802696786
H         1.95852626925214       2.83402898320062      -1.85088683663063
H         3.46014262338149       1.91795872159198      -1.67083948082743
H         2.08097716615197      -0.07317201402379       1.17195997296111
H         2.22545938987739      -0.60248162614575      -0.51180121020575
H         3.46621057202439       2.75597670207403       0.46961929828877
H         1.88306238697565       3.51568400413597       0.26006493685859
H         0.14575496509848      -0.64122313748210      -0.98599653405134
H        -1.22856251064990       0.44778643254905      -1.16993690070122
H         2.20027527628390       1.21650936543355      -3.68606296484409
H         2.33106274787633      -0.14092528878799      -2.57416433921815
H        -0.02429393637009      -0.02014608360073      -3.37306552296076
H        -0.10435132577042       1.70446579102405      -2.96263585994943
H         4.53543160259451       0.42965120465904      -0.63105827456746
H         4.41795640735727       0.87822212890800       1.06382956102512
H         1.02025863054635       2.29965970690817       2.30788035049594
H         2.62118594726634       1.55585772280870       2.52576764524947
H         5.63528429959494      -1.25905687388830       0.81196991224721
H         4.26601822285802      -1.99906461909792      -0.04683871386514
H         4.11115666345626      -1.57110210231050       1.67798590719158
H         2.32814950661452       3.57358157762536       3.97130227098086
H         2.08924207505229       4.59204109215346       2.53035658864884
H         3.66004954595929       3.80938745491705       2.80820503331908
P         6.69967275621224       3.60175133276005      -0.91923880003356
F         7.42053803985556       2.31174576005614      -0.14870194424443
F         8.10813022696998       4.46092906611369      -0.86689612284612
F         5.18931328382037       2.79085335674550      -0.98022498913153
C         7.22317331644464       2.63277422491458      -2.58438247898234
C         6.13135104059517       4.15206031176095       0.91199849380093
C         5.91600221995757       5.20873608555027      -1.83661729878917
C         6.68513999614836       1.17306859413950      -2.80570974418743
C         7.14004437743540       4.89235291060954       1.83303028943867
C         4.47496994217575       5.16289560056465      -2.42412642924672
F         8.59292602667302       2.51636404067282      -2.59323162154046
F         6.86668667517542       3.25620167363243      -3.76318985586418
F         5.79097635102687       3.00429869798356       1.62646105434413
F         4.97649322162704       4.91087686319318       0.90934634396438
F         6.72816762496643       5.57914734706044      -2.88147787665730
F         5.91496177043836       6.28824453911192      -0.97670804246478
F         7.33560167127357       0.61907311243057      -3.86436405040357
F         5.35283423673797       1.17536490934911      -3.12238055021699
F         6.85029366892044       0.34386629541321      -1.75095092616192
F         6.56656315576721       5.07984548196339       3.06367086062610
F         8.26243288579215       4.16286149398772       2.01066046001682
F         7.47298832051369       6.10716307512996       1.35172871524426
F         4.21118779923086       6.30772221906274      -3.10862051514512
F         3.53123906582350       5.05744278837198      -1.44381800712035
F         4.29514209862838       4.12515195783583      -3.28010262012875
