35
C11H17F3N2O2 optimized with ForceField in AMS.
N        -0.02232581862542      -1.33205550434855       0.35026588526947
N        -2.04023135355950      -0.40634585083342       0.23172738999364
C         1.33150791058130      -1.63675554932164       0.80934872839741
C         2.37566976803225      -0.86884957421850      -0.01224171797738
C         2.20652089694942       0.65127277526044       0.12790092974464
C        -0.93704806536053      -0.57411546162856       0.98584328339913
C        -0.56849299514827      -1.66152275227559      -0.83779257517451
C        -1.81862442945818      -1.08484242886362      -0.91223589035254
C        -3.20084408225171       0.42057984893343       0.55056906673489
C         3.29897221091498       1.40260126654261      -0.62590180162474
C        -3.16400983567843       1.71544110859488      -0.25349288671789
H         1.43994017733260      -1.37164943975017       1.88434938553396
H         1.51310015691777      -2.72892273881607       0.71343034861629
H         2.29135471940700      -1.15853779979369      -1.08251888826252
H         3.38734837521353      -1.16217924493717       0.34380613917126
H         1.22079088426312       0.96103791391215      -0.28199328074212
H         2.24686117964229       0.93734637688354       1.20159192199596
H        -0.78303857764261      -0.11428427504527       1.95404910891698
H        -0.08382140199789      -2.25076837212752      -1.60499937660693
H        -4.13259562889634      -0.14049901177081       0.32251873567833
H        -3.20388043839470       0.66983976916419       1.63436903497207
H        -2.50065095097109      -1.13336690116741      -1.74952366053022
H         3.27053817692867       1.14400776212874      -1.70586660861300
H         4.29793825107195       1.14907613159793      -0.21202698968274
H         3.13749164817321       2.49609494166157      -0.51910976754556
H        -2.23716494811634       2.28135580456924      -0.01828820737807
H        -4.04284231761064       2.34222395742254       0.00605087572613
H        -3.18879007778790       1.49476152250663      -1.34160501766808
C        -5.17329050735315      -3.00360439870867      -3.33150384794845
O        -4.91587562123571      -2.16247894862792      -2.48545002483182
O        -6.33733860400332      -3.24133190497488      -3.60983484770861
C        -4.07190439879473      -3.74480151376850      -4.02971181494254
F        -4.21120965219402      -5.10110614006550      -3.80033730458101
F        -2.83535807598595      -3.33355915604682      -3.56335969160029
F        -4.14364138086166      -3.50380960108762      -5.38929542606115
