46
C14H29NO2 optimized with ForceField in AMS.
N         0.95310938056656      -0.30770020648446      -0.00783165916879
C         2.02046479473717       0.07876537467823      -0.98162238330561
C         1.62515935204822      -1.23277367495121       0.95550916486922
C         0.46159506838164       0.90344344112231       0.72682168993751
C        -0.14567673428440      -1.02457983357731      -0.73333040115515
C         3.23499349003130      -0.79329732988066      -0.73003669777917
C         3.12171926672493      -1.15268431893177       0.72432466183422
C        -0.28225687712929       1.93308923491291      -0.15811714131781
C        -1.33018615146629      -1.46056997774089       0.16229536240670
C        -0.58508785742317       3.21227569718556       0.63104915182751
C        -2.32079945802986      -2.32304054234320      -0.62920333544282
C        -1.32064884005616       4.23327839645111      -0.23232590279016
C        -3.49715467335426      -2.75584811484696       0.24114863358001
H         2.35135897457821       1.13445383644282      -0.84841137675822
H         1.70293361548369      -0.01729639178450      -2.04503888162921
H         1.33098391894969      -2.29541320618930       0.79276343006508
H         1.39419245729147      -1.00339092121013       2.02082041631935
H        -0.21367583896398       0.60808607197187       1.56016621196314
H         1.32393509754579       1.41473153433969       1.21499337439774
H        -0.54516886494573      -0.39346206668164      -1.55785564566052
H         0.27037053449143      -1.93070154920593      -1.23253476462311
H         3.17786243488839      -1.71325562392246      -1.35304536911242
H         4.18064336524002      -0.25185711261883      -0.94626128291331
H         3.55916421564548      -0.34334064274663       1.34988809554807
H         3.63029016093178      -2.11562496803143       0.94866860743550
H         0.32540056872222       2.19617473988453      -1.04904486520599
H        -1.24513527605922       1.50693078162304      -0.50878656074797
H        -0.96618479306389      -2.04001692193986       1.03652195421976
H        -1.87256247082408      -0.56798263697463       0.53745537332660
H         0.36393153777546       3.66585508690931       0.99145899009970
H        -1.21551293666489       2.96623276625346       1.51336387662578
H        -2.70900377883114      -1.74518112129141      -1.49637585075623
H        -1.80636039236871      -3.23091451612471      -1.01302506853637
H        -2.28004846107273       3.81005836210378      -0.59912226299091
H        -0.69320678312841       4.52674027155436      -1.10087127688941
H        -1.53998191107453       5.14006595756943       0.36965597875141
H        -4.03828036591116      -1.86701508960836       0.63003356148874
H        -3.13947869935309      -3.37052628237499       1.09454046368578
H        -4.20261048032481      -3.36394242522451      -0.36337265601209
C         7.64987569591454       0.56628845986960      -0.07094001054928
C         6.92045742612934      -0.72331591701184       0.13706965464302
O         6.65788339961507      -1.43540577393075      -0.81844985255151
O         6.58643732029518      -1.06760593723941       1.25929166605392
H         8.63683668454409       0.36460709015620      -0.53764683857730
H         7.05842649250862       1.22697192416771      -0.73902806386024
H         7.81095522748948       1.08672802687184       0.89735682325481
