36
C10H23NO2 optimized with ForceField in AMS.
N         0.00148452886425      -0.00027896990261       0.00131648524881
C        -0.84704054014220      -0.25758478105318       1.21743831650038
C        -0.84864914421180       0.25656664409731      -1.21292746489784
C         0.85009952444979      -1.21638205327971      -0.25675746059553
C         0.85036703142067       1.21562192300288       0.25656185375700
C        -1.90073753379280      -1.37446297964933       1.07916199447160
C        -1.90345202532433       1.37168519826459      -1.07444578815788
C         1.90237113586221      -1.07806172980905      -1.37449168593429
C         1.90504847524147       1.07728061895024       1.37169475679380
H        -0.21150928636816      -0.54851917724505       2.08026667849508
H        -1.37181625613179       0.66902167275286       1.53694717529482
H        -0.21570300865263       0.54527327398354      -2.07853949980504
H        -1.37344649345477      -0.66993483225852      -1.52533411493413
H         1.37573393980261      -1.53581234244175       0.66938004397925
H         0.21477939932807      -2.07973640895943      -0.54723802544493
H         1.37381999438088       1.53455928049208      -0.67107333949206
H         0.21529872216855       2.07875347911780       0.54780098864776
H        -2.45533732116255      -1.45920025032609       2.03748665687219
H        -2.64619197477422      -1.15424347240699       0.29064295633004
H        -1.43341496449463      -2.36072118662899       0.89001203215968
H        -2.45962155981527       1.45449816330377      -2.03217958069951
H        -2.64725625330857       1.15033508996772      -0.28479040180952
H        -1.43697847190539       2.35853262338865      -0.88674964279582
H         2.45775298468625      -2.03598917187819      -1.45922458350486
H         1.43380226568779      -0.89001830489945      -2.36039583966850
H         2.64691753401624      -0.28866584778284      -1.15473002063688
H         2.46001467726463       2.03546427137955       1.45535470973481
H         1.43846377140114       0.88846531456619       2.35834303499389
H         2.64931654867832       0.28811474740801       1.15009170768009
C        -2.26824515798142      -3.91860970722744      -4.78712949825182
C        -2.99084065771693      -2.85360582164896      -4.02619428672787
O        -4.19816328434754      -2.92743371468079      -3.86539077900163
O        -2.37796881891401      -1.89845127053561      -3.57954177182126
H        -2.74835538836916      -4.90501499025886      -4.61625855667161
H        -2.29874474024115      -3.68087007841271      -5.87031709010973
H        -1.20932611274353      -3.97737654268965      -4.45767795479846
