35
C9H18F3NO3S optimized with ForceField in AMS.
N        -0.37753066387164       0.38166038321926       0.07661585509744
C        -1.41542346307061       0.64175573644513      -0.95901023071129
C        -0.86202421536769      -0.80458719346324       0.84203974737240
C        -2.68651424802754      -0.05880368188472      -0.52593234000196
C        -2.19288287420535      -1.24925811914668       0.25204096053092
C         0.92927741478530       0.10849853196871      -0.59766794551679
C        -0.27605675403643       1.56851344422436       0.96613514328223
C         2.13079571686975      -0.04346824343874       0.36388875732930
C         3.36108606919003      -0.55586100112963      -0.37894832381539
H        -1.12747626813444       0.22108813875364      -1.95130540573882
H        -1.60936269962395       1.72767276379216      -1.12135401606603
H        -1.01785823926754      -0.57369418131858       1.92181909274272
H        -0.15642020280153      -1.66414345498197       0.80380562573252
H        -3.30410994757774      -0.36838483783693      -1.39730187107862
H        -3.28042280550345       0.60772082678132       0.13723172450906
H        -2.91770681848009      -1.54739416078856       1.04050223976836
H        -2.02926658302858      -2.10459481011588      -0.44117241010187
H         1.16646844443344       0.93314304377381      -1.30916439359666
H         0.84388035536032      -0.82146616695058      -1.20749361754236
H         0.16197728942015       2.43601339342636       0.42353554359723
H        -1.27838524273617       1.86865773647515       1.34650797525886
H         0.35660843432097       1.35651942530810       1.85552310073849
H         2.38802972521613       0.94212718348192       0.80653153645166
H         1.89778526025258      -0.74788753142914       1.18878668983982
H         4.21412507830882      -0.64434646965855       0.32601530516209
H         3.15959976980208      -1.55648262518354      -0.81775417871196
H         3.64150220674695       0.15165595100480      -1.18799774626895
S         6.06036499004605      -1.91977640970884      -3.13276394590031
O         6.26132433564600      -1.82746036068009      -1.61309500931505
O         4.70129916458014      -1.23884997063486      -3.34783821309519
O         5.74204043514730      -3.40584299550850      -3.35241714199854
C         7.42133567607368      -1.26021067970797      -4.13813760416423
F         8.56430004624217      -2.00298049957775      -3.91434513449136
F         7.65502535769011       0.05674550692877      -3.79254637896576
F         7.08318374290077      -1.33016942143877      -5.47570023563197
