54
C14H26F6N2O4S2 optimized with ADF in AMS.
N         1.19733457922350       0.52195173378933      -0.38692623213717
C         1.93051169817406       1.09989247167149      -1.58797793983807
C         2.32715815619624      -0.15478930920778       0.36296813685038
C         0.55654006367749       1.59977992017295       0.46779441637191
C         0.18370539059477      -0.49743238236145      -0.86482805007973
C         2.92535473182714       0.01656510819220      -2.00270539583261
C         3.18571139557968      -0.81307052466579      -0.71668286034809
C        -0.60365046266674       2.31568990919987      -0.19709374646237
C        -0.65530728807562      -1.13847452859414       0.22729295583425
C        -1.16787224531580       3.39378487351838       0.73385813800851
C        -1.56793211580902      -2.21940565392578      -0.35930016489746
C        -2.21130243363040       4.24992275741636       0.02198365208379
C        -2.43924174108545      -2.87515705684549       0.70808506665769
H         2.45644964148337       1.99943924289948      -1.24238399384230
H         1.20721025304111       1.40220307348452      -2.35458593732252
H         1.91199743815276      -0.83844125494107       1.11350639423500
H         2.87259551912478       0.65125395550628       0.87083134462063
H         0.25277688137165       1.11012604560648       1.40645369536857
H         1.35813774241798       2.31844221311286       0.69632148806703
H        -0.45647787862167       0.02611123257663      -1.58890936793039
H         0.75110655295020      -1.26264101967332      -1.41309593315454
H         2.52882541373135      -0.61792551339321      -2.80918450444728
H         3.83957431238893       0.49587598053441      -2.37888644322660
H         4.24205133370741      -0.78945163166984      -0.41584506982907
H         2.90976538488272      -1.86865351448041      -0.85938769301736
H        -0.25041458473755       2.80648690979014      -1.11865383197857
H        -1.41269457141954       1.61282726306523      -0.46235526397477
H        -0.01383734507877      -1.59797615367649       0.99867385665483
H        -1.27707697272010      -0.38030979648175       0.73102400670255
H        -0.33967072939512       4.03913729547768       1.06820123543842
H        -1.60708293692875       2.91981486704525       1.63150655775695
H        -2.20934820810498      -1.77198473973386      -1.13980764103522
H        -0.95185224159913      -2.98695204654966      -0.86134976565370
H        -3.06004044813440       3.64165000404499      -0.33169795497234
H        -1.76001995869310       4.74994808410975      -0.84963556408345
H        -2.60612738907512       5.02768656931449       0.69181512575092
H        -3.08621357943420      -2.13220472932422       1.20075878768852
H        -1.82125622572322      -3.35247969717155       1.48516509318554
H        -3.08648112002645      -3.64819109189851       0.26966528946081
N         3.47723922818332       4.07955592331357      -1.49720358964914
S         4.80896273842835       4.41212901550085      -0.63653681768908
S         2.07281591112513       4.82379353506297      -1.22041677004678
C         4.88336675515393       2.95203540640084       0.55918205770835
C         2.29391362862497       6.63009979008327      -1.79400451919040
O         5.97004802222801       4.16453000576180      -1.47642423824404
O         4.72930111902187       5.58458606204445       0.22201107862990
O         1.66683866986069       4.91830608971749       0.18326307925162
O         1.12359013504445       4.26398692820174      -2.18708759078019
F         5.96194754047408       3.05432648488788       1.36110968596413
F         4.97615629544008       1.76673159298334      -0.12164648472513
F         3.77318902857082       2.86943453425448       1.35083079762317
F         1.10765883934194       7.06847621026776      -2.28435102502433
F         3.22332489209711       6.70831810760859      -2.77041340682926
F         2.65550653055525       7.42807631807648      -0.77428212347155
