46
C14H29NO2 optimized with ForceField in AMS.
N        -1.62694640731262      -0.29791514915108      -0.16982402642263
C        -1.90286049474282       1.11982447919755       0.21838333086255
C        -2.63860312771562      -1.21212441949916       0.45133639787331
C        -0.28762988841718      -0.72016804342994       0.36135387398326
C        -3.34811368819115       1.56438389680536      -0.06658831444877
C        -4.10350226159293      -0.80318922573713       0.20503037452838
C        -4.34351188869409       0.64192701719107       0.62655315692174
C        -1.64367314591941      -0.45453374865198      -1.65030476202160
C         0.93198259258112       0.05590118853598      -0.19444692979428
C         2.23508249212418      -0.46178392521079       0.42960065119573
C         3.45321973288800       0.26272050244044      -0.15597850529750
C         4.75408288829458      -0.25849781428682       0.46386890745502
C         5.96986026676908       0.43283365309342      -0.14547163024148
H        -1.23551805391751       1.81976603745096      -0.32914317861072
H        -1.70755067202373       1.26707834527968       1.30562388757737
H        -2.49709915868644      -1.24969054508894       1.55682888962279
H        -2.50232352227049      -2.25405618502083       0.08075554672396
H        -0.27067956353674      -0.62110691874754       1.47168698265795
H        -0.12232105205461      -1.80173396814607       0.14572721227431
H        -3.49170421561004       2.59983491451666       0.31079633563511
H        -3.54341711089070       1.58351107986474      -1.15988752783459
H        -4.38752668444021      -0.94504199921493      -0.85805075997937
H        -4.76713225186958      -1.46505010980683       0.80261071113226
H        -4.23395113239664       0.73393319924613       1.72987650693266
H        -5.37920758329215       0.94110372810393       0.35651409334509
H        -1.01799383412116       0.31596453842511      -2.14913860255280
H        -1.27247496224091      -1.45945029224942      -1.95136500757373
H        -2.65828214239418      -0.33839072690380      -2.07690016285586
H         1.00396168277053      -0.07565296748347      -1.29368338744739
H         0.84488293839531       1.13702138819323       0.03739723175082
H         2.20602744803557      -0.30337827374613       1.53031236170112
H         2.33050196101312      -1.55236225243525       0.23249326315148
H         3.36407001064056       1.35384756124457       0.04085339205839
H         3.48165498973166       0.10318276434657      -1.25650840492243
H         4.84027395343681      -1.35383845698491       0.29296375666002
H         4.74635350241317      -0.07090112546789       1.55902714352860
H         6.00940455233686       0.24959644429376      -1.24041460154963
H         5.92519095088680       1.52672663929701       0.04225568666037
H         6.89644943008347       0.03034408601627       0.31526978117559
C         4.06922388190358      -3.65568462069933       4.86239100149317
C         3.87401970400974      -2.18445152393227       4.67580551243798
O         3.04734888788062      -1.58912689351850       5.34763571695257
O         4.53939859938261      -1.57462249779620       3.85437450194584
H         4.39089736439946      -3.85989163988009       5.90527455539661
H         3.11444877602559      -4.18637934307189       4.66410627591859
H         4.84489861572852      -4.04016857038128       4.16587591640014
