40
C10H22F6NP optimized with ForceField in AMS.
N        -0.88032422938857      -0.15153120686718       0.04173549196156
C        -2.01663101522572      -0.26362065312166      -0.92359184251789
C        -1.21240792978185       1.03002558356288       0.89635586251486
C         0.39222753794034       0.09623348433642      -0.71232370506099
C        -2.84687785185523       1.00094259881109      -0.82863514807658
C        -2.63333524256986       1.46125381589583       0.58520720095491
C        -0.80606496335793      -1.38164126072406       0.89471647086093
C         1.65573372623220       0.19228195858948       0.17694335566135
C        -0.44170362117160      -2.66641366990873       0.12824979102137
C         2.87062024595490       0.63833573508935      -0.64406782740536
C         4.12241315578258       0.72400278785701       0.22511237501012
H        -2.69585629327631      -1.11238920477959      -0.67659115333637
H        -1.68734454203094      -0.42125589035576      -1.97585533359142
H        -1.11244164517072       0.82648870355748       1.98708751602844
H        -0.55705491293500       1.90505474871992       0.67947861592645
H         0.56077611880899      -0.70379512159037      -1.46718189678709
H         0.29790737390642       1.04036377285978      -1.29854310876038
H        -2.45711486826438       1.76318482277657      -1.53916707718444
H        -3.92225477483988       0.80775495720200      -1.03701788790600
H        -3.34396813956700       0.94084205772711       1.26492415521581
H        -2.76328345113697       2.56195591256202       0.67873947927328
H        -0.07007955276203      -1.24986735133000       1.71762843884925
H        -1.78463937798011      -1.55190515188927       1.40036280722306
H         1.49754403965094       0.91286242106279       1.00664156974394
H         1.88434361408827      -0.79976024087621       0.61913874879475
H        -0.56351544242187      -3.53754198916040       0.80350426200574
H         0.61624251642613      -2.64964569111836      -0.20279118924844
H        -1.09754616837647      -2.81940000893791      -0.75232310867772
H         3.05322970212958      -0.08746918267946      -1.46667718460894
H         2.67671232927751       1.63740658145168      -1.09146631067744
H         4.35028758940009      -0.26675753666837       0.67321108701950
H         3.97705428354125       1.46899697089047       1.03631463332460
H         4.98587742682501       1.03969813589689      -0.39703916667003
P        -0.24138373765588      -7.46876353124808       2.10024998187587
F         0.78494961414371      -7.22655030141551       0.74447315544249
F        -1.49279189923111      -7.85416996150053       0.98879687143933
F         0.17433160451416      -9.13045344175275       2.22437859527416
F        -1.28006392880362      -7.69899333506256       3.44849708606432
F         1.09336235035852      -7.06177174189192       3.10156469333982
F        -0.74044874737758      -5.82636154337009       2.10530501948317
