35
C11H18BF4N optimized with ForceField in AMS.
N         2.36882714337679       0.03748389462183      -0.51882288637659
C        -1.44368884126195       0.04887324234355      -0.69828284548814
C        -0.04456515090164       0.01881564198601      -0.07606509590057
C        -2.52280078469844      -0.01427587004501       0.38953803389355
C         1.04513452533445       0.08200433157968      -1.14999330921693
C        -3.92759914055873       0.00509538740742      -0.22260160684970
C        -4.99974379627128      -0.06193082697787       0.86202600120836
C         2.95795685860737      -1.17085308909855      -0.26711970368157
C         2.98537326201907       1.20112212500811      -0.14845715694789
C         4.20189213292137      -1.23573059474829       0.36302668753504
C         4.22830223645437       1.17232393786664       0.48761776400167
C         4.83840606389118      -0.05514441858125       0.74324347309694
H        -1.55952552538309      -0.81911479483052      -1.38452148373973
H        -1.56592987939800       0.98569253030754      -1.28581705468318
H         0.07342924323507       0.88456501698101       0.61248607134411
H         0.07812829579012      -0.91746738739784       0.51197025753753
H        -2.39357312375203      -0.94727759634659       0.98182817336287
H        -2.40788329570199       0.85662818313354       1.07248206067147
H         0.93413294931524       1.01501710179192      -1.74702610641988
H         0.92898109068825      -0.76928061488836      -1.85817247798152
H        -4.06751003204593       0.93840477095728      -0.81059219287782
H        -4.05099445218831      -0.86397655485377      -0.90512872698603
H        -4.91430671339790       0.81129862812826       1.54382356254745
H        -6.00628570993794      -0.04884720687289       0.39291829934937
H        -4.89489282092769      -0.99819498174027       1.45120667472849
H         2.46223826687819      -2.09168279111326      -0.54524654091221
H         2.51328735697867       2.15846004044938      -0.33540420226502
H         4.66443918197603      -2.19440550018599       0.55903978077695
H         4.71122383068237       2.09462489362429       0.78333469767163
H         5.80053184130728      -0.09154022806438       1.23675020427467
B         1.02604496912744      -4.78113466467418      -1.47609706091190
F         0.77984380269027      -4.58370327343169      -0.09133288359160
F         0.82087708409157      -6.14764545303792      -1.80370820393871
F         2.36663419106685      -4.42143842215922      -1.77586496131504
F         0.13766701519297      -3.97296413093861      -2.23414470491607
