40
C10H22F6NP optimized with ADF in AMS.
N        -0.62186163142298       0.40582521802202      -0.18804321763267
C        -1.69487332060663       0.97008910944223      -1.11770459230163
C        -0.91687364435703      -1.04708293735813       0.10735226339587
C         0.71540213123938       0.52782457788875      -0.91815121869603
C        -3.10553297491935       0.74161321589594      -0.60583284679060
C        -2.32488868239142      -1.28421752298386       0.63463613650673
C        -3.37690325472839      -0.73512061502253      -0.32794937929708
C        -0.57353668728400       1.22109343043198       1.06820193686035
C         1.92059967482887      -0.06479735555764      -0.20878982358874
C         3.19181000997034       0.30377408584103      -0.98563891311887
C         4.45167478452575      -0.27206145541477      -0.34356539810987
H        -1.54183373923143       0.46293154666964      -2.08208035209484
H        -1.46425177586868       2.03346538763274      -1.26188795847135
H        -0.15302272300822      -1.39667810832645       0.81567151881324
H        -0.77330254897599      -1.57614389579611      -0.84865551424109
H         0.84292308922041       1.60287104760498      -1.10243497105272
H         0.56174389444439       0.04671781739769      -1.89580282911066
H        -3.78350554803234       1.13469386316299      -1.38117168381121
H        -3.30066088348098       1.34752749027604       0.29529802999036
H        -2.44497884963725      -0.83258641725698       1.63460296915480
H        -2.44196907290296      -2.37224877107162       0.77471486446859
H        -4.38767612587228      -0.87763465469906       0.08563041793881
H        -3.33408924676559      -1.30182572121113      -1.27578126430735
H        -1.55547803772041       1.20698142901082       1.55045949799463
H         0.17354473416996       0.79072149848923       1.74479281088205
H        -0.30434975369872       2.24771979615581       0.78608174628526
H         1.85073311830367      -1.16429970444029      -0.13841515641644
H         2.01780604083611       0.32956206930441       0.81688397955936
H         3.26667921107212       1.40279172011861      -1.05010178439522
H         3.10243082185307      -0.05918307381998      -2.02459986282234
H         4.41518261814774      -1.37333698659254      -0.30247389857002
H         4.58004932759905       0.10027390363880       0.68605079224703
H         5.34792574534015       0.01315745968248      -0.91541838782061
P         0.06355815153555       4.16671432664853      -2.54817459548246
F         0.17003977339844       3.59829282451095      -0.93871566850750
F        -1.58930370439614       4.01863500629121      -2.42258686545952
F        -0.01062357093496       5.69717733838623      -1.97951751867355
F        -0.05925032344903       4.67212490728591      -4.09444109292672
F         1.70588096680307       4.21795440681092      -2.59517630357048
F         0.12094945079671       2.57061372605112      -3.06297497972751
