36
C10H19BF4N2 optimized with DFTB in AMS.
N         1.89567668512764      -1.03561072358541       0.06187302362157
N         2.82873524762269       0.82531660556144       0.60977070266445
C        -0.38429790010592      -1.95505023203085       0.04738538004853
C        -1.21643844920967      -0.79225919841656      -0.50105845984565
C         1.01676638070934      -2.00990922050114      -0.57797994140904
C        -2.43615080911379      -0.51735593016512       0.38316719373492
C        -3.16634114346324       0.74863262571206      -0.07434831563673
C         2.02273501586046       0.24710406744443      -0.27563422792034
C         2.59113416182559      -1.26191475567086       1.22002465978617
C        -4.28100296147767       1.12203393756702       0.90070431419893
C         3.17947637597656      -0.08745560566232       1.56459645518337
C         3.11863775799732       2.24771785022698       0.66364489153058
H        -0.27885614984391      -1.84759562939305       1.12985715392545
H        -0.88372356732079      -2.90686442790382      -0.15640946246515
H        -1.52787025499875      -1.01253004601852      -1.52868553668974
H        -0.59911686144048       0.10907377619470      -0.52364216213942
H         0.98316958083161      -1.78858570783783      -1.64865163114709
H         1.46593927133408      -2.99619896430286      -0.43319025955274
H        -3.11665626400390      -1.37629743588851       0.36153943559496
H        -2.09770118290887      -0.37674593544379       1.41378370986263
H        -2.44894724192987       1.57348892190188      -0.12468388012969
H        -3.58175874213183       0.59669883731808      -1.07754650646796
H         1.57352069005126       0.73075790868598      -1.12374749758293
H         2.60655100161223      -2.22551259657295       1.69776320150155
H         3.80121727807974       0.17238499018078       2.40302169684902
H        -3.85711316544888       1.33739282845412       1.88207402300587
H        -4.80745335895225       2.00913269230924       0.54650427732902
H        -4.99982003736037       0.30628832681059       0.99968004246103
H         4.18115527062693       2.39458872416036       0.85420198675013
H         2.83452898760798       2.69884745629975      -0.28459744510861
H         2.52274612058970       2.68262651716602       1.46945132917312
B         0.02646778609343       1.53940500456357       1.86713310745323
F         0.95175328604933       2.24824874170304       2.64237954229772
F         0.25232717367764       0.15639676752348       2.03591647778949
F         0.28947035521161       1.84486577234219       0.48922047223381
F        -1.27311116127496       1.86256760896788       2.17504073029953
