30
C8H15BF4N2 optimized with DFTB in AMS.
N        -0.25138125067736      -0.45885839439071       0.70510943050171
N         1.86555467119519      -0.36761161203158       0.34131484910867
C        -1.57840100592905      -0.14030110410854       1.21866222413658
C        -2.35537457610969       0.72361604838102       0.21879742566405
C         0.87996717016631       0.14213923674474       1.07117056730679
C         0.01722366029437      -1.35568045289205      -0.29721399174769
C         3.24887010200132       0.10636650351716       0.36780776911048
C         1.35485773916796      -1.29686977912971      -0.52481555036791
C        -1.74107156472818       2.11020551512459       0.04938911789775
C         3.58327938071264       0.80525907427451      -0.94472309750656
H        -1.44923714844696       0.38664754199318       2.16748096929128
H        -2.10465710532470      -1.08197592671415       1.39983705184054
H        -2.39199351943323       0.20744158404090      -0.74556837800882
H        -3.37979230122979       0.81299329833287       0.59277949485249
H         0.99219607231364       0.89748747992338       1.83569242260561
H        -0.75164504744852      -1.95609742982774      -0.75104501917762
H         3.33512602057314       0.80819284960958       1.20039045050454
H         3.90252288656614      -0.75419665904213       0.53932607578233
H         1.97402510496962      -1.83787312873722      -1.21866357103944
H        -0.72092678378575       2.03902169657314      -0.32464760898167
H        -1.72186046451852       2.63903294470800       1.00223695415192
H        -2.33341243305237       2.68788685405670      -0.65928521469098
H         3.59803836431235       0.09713207097586      -1.77336157127751
H         4.56288256834988       1.26989533607267      -0.84869164332469
H         2.84876227817618       1.58389066705246      -1.14065430439893
B         2.10261282791729       3.12731871676111       1.25085598545134
F         1.30428077358722       2.47392537805894       0.24887109962028
F         1.70346853678621       4.42309013046288       1.40448358185016
F         3.43919598244521       3.00614993483722       0.87067243948162
F         1.90536086894948       2.37911273867294       2.44665777066367
