51
C15H29BF4N2 optimized with DFTB in AMS.
N         2.96062173520247       0.23691135697358       0.45831901647436
N         2.80714272447375      -1.78525686033212      -0.25754673368637
C         1.75996212483077       2.31800464121552       0.98903145343324
C         2.92616802956092       1.39437816027141       1.35044920877502
C         1.09483512660956      -3.52482391454240       0.07806126123732
C         2.55152334541600      -3.22423730978403      -0.28949488027910
C         0.41202272872817       1.60277889870288       1.11524991251492
C         0.09928865772323      -2.74578638576952      -0.78443354147604
C        -0.75331643495330       2.52621315387523       0.75498227845959
C        -1.33030063006646      -2.94005293926534      -0.27013351422420
C         2.78603623633240      -1.02598290050057       0.83668122789649
C         3.08408077566440       0.28904112053282      -0.90491092370617
C         2.98199013003163      -0.98810775104993      -1.35672894560562
C        -2.08471991342529       1.77586626879511       0.86400437814336
C        -2.32992876625267      -2.13746100460285      -1.10733427921970
C        -3.26718202621523       2.67287854184620       0.50380465710369
C        -3.75058463814124      -2.27954351675670      -0.56380213445830
H         1.79534630601836       3.17118417117715       1.67303348616100
H         1.89381171544853       2.69858933674843      -0.02928321177312
H         0.93996633533043      -3.27508473068056       1.12938857597394
H         0.93975445916272      -4.60041893011495      -0.04477623301838
H         3.87996434102334       1.92284129206560       1.25938406608197
H         2.81152607014773       1.01322599769585       2.36780079281583
H         3.22618060492107      -3.70345400301160       0.42510923321535
H         2.78817778877024      -3.57506817979851      -1.29763139170419
H         0.29249954949073       1.24005643604079       2.13915254590839
H         0.40076201182698       0.73066526859551       0.45471590712989
H         0.17596715613400      -3.06766041480879      -1.82985642220038
H         0.34254876999259      -1.67937136522758      -0.74050055266475
H        -0.76177977241080       3.39000697817245       1.42897138379190
H        -0.62535987140090       2.90168177817462      -0.26730801608903
H        -1.37576480421419      -2.60503497212431       0.77029447846584
H        -1.59335144631625      -4.00290965584032      -0.29774677258967
H         2.65290931568927      -1.37756944090500       1.84832217339973
H         3.23495132734137       1.21285368668537      -1.43487191388150
H         3.02364836382178      -1.38896520165681      -2.35424215618565
H        -2.06732610589928       0.91105455233400       0.19213201867599
H        -2.20711516484903       1.40155768714736       1.88502506373242
H        -2.29952869161264      -2.48011793594910      -2.14804530524968
H        -2.04349140926862      -1.07979188314554      -1.09637531484368
H        -3.31494110615971       3.53183779185102       1.17490742592971
H        -3.17389042145868       3.03825602765561      -0.52035512265082
H        -4.19945845137947       2.11396715085467       0.58899804260562
H        -4.44478303245096      -1.69651599673121      -1.16993278883172
H        -3.80099270169756      -1.92059403351548       0.46482114489453
H        -4.06496311453745      -3.32410174748500      -0.58242447403509
B         0.79477719382574      -1.41796324308301       3.12846851957469
F         1.59953474116932      -0.29126857919406       3.42587860652975
F         0.28119842298663      -1.21847680807836       1.81476222395634
F        -0.20777611024527      -1.58844280662049       4.03354055736408
F         1.65143097868088      -2.54307903043708       3.05589999992815
