49
C13H16F18NP optimized with DFTB in AMS.
N         1.39488386470591       0.19131906387372      -0.42862358809418
C         1.26757467090646      -0.08170184945308      -1.89982206782059
C         0.28751660089898      -0.49488926237463       0.30914120239422
C        -0.08608771796401       0.33063605378570      -2.45618087379512
C        -1.09161719248328      -0.09085409948835      -0.20237376827285
C        -1.21946022771084      -0.36105757026936      -1.70169456732525
C         1.39676849579693       1.65320846094521      -0.14456467437520
C         2.69657766249823      -0.36931374378444       0.03414647157203
H         1.42503685301160      -1.15486011137560      -2.03586380973206
H         2.06739218344725       0.46012337676489      -2.39914474428625
H         0.39694666830266      -0.25081322368265       1.36871430003453
H         0.43552923293604      -1.57038260244584       0.17672576011794
H        -0.10588909423978       0.03967120783234      -3.50915309102510
H        -0.20272509794326       1.41617787029180      -2.41258083110591
H        -1.28201592278071       0.96463598377080       0.00893872813648
H        -1.83145727361324      -0.67823653305570       0.34773338041727
H        -2.18404321457862       0.00706148131850      -2.05811500800054
H        -1.17813012563861      -1.44008573337479      -1.88259147993529
H         0.47761382211127       2.10429228302759      -0.50635712914448
H         1.48324431088058       1.79903323198127       0.93062779995075
H         2.24535665203562       2.10487587082639      -0.65122342373042
H         2.70968814687765      -1.44068703040615      -0.15495774846500
H         3.49908697400894       0.11120105745887      -0.52054071925394
H         2.80600434360332      -0.17548432740887       1.09954862994432
P         4.33894834806068       1.91440943341981      -3.54377332897269
F         3.82538992739433       1.66325557971391      -1.90544517512435
F         3.05175906785076       0.98071985030035      -4.14773787634702
F         5.60923849752355       2.82941907284615      -2.95958559816318
C         3.04524360931807       3.39379683687194      -3.41120864042327
C         5.27997357985135       0.20263316118501      -3.15461663920047
C         5.02357423642009       2.22366373010897      -5.38272281407749
C         3.29452721076625       4.58097935593713      -2.44138445798200
C         6.00253820444410      -0.72641406099353      -4.17460859428361
C         5.18989201309570       3.64806201245700      -5.99721595376747
F         1.86990515682201       2.86220357679470      -2.96946606432361
F         2.79212768395843       3.90315046164587      -4.62584191880369
F         4.30719666576157      -0.59500391740850      -2.62674044601817
F         6.15494511522132       0.42786850626274      -2.16363028091012
F         4.34452263417702       1.49385434870967      -6.28013873021034
F         6.27240166120774       1.71249634250103      -5.31196886198395
F         2.31288202605854       5.47828584673033      -2.56903431760047
F         4.44450134731228       5.20053844501684      -2.63987646985634
F         3.26449162373860       4.14507951705128      -1.17418752557032
F         6.02652040687741      -1.97186373042365      -3.68293425006545
F         5.36549132548407      -0.77321261372767      -5.33971812617019
F         7.26006464753200      -0.36023701073511      -4.37867975064678
F         4.16184623859220       3.95344315819172      -6.78111892983515
F         6.29626277319264       3.71146880246735      -6.73404069420541
F         5.28309430857023       4.57633685481908      -5.04549144746386
