46
C14H29NO2 optimized with ForceField in AMS.
N        -0.70739032400680       0.31359132418254      -0.14792004240369
C        -1.28281756256406      -0.44273276645750      -1.30818445151000
C        -1.82856901666156       0.72362207157972       0.76058673349852
C         0.28745085908962      -0.51251792064972       0.62316767718787
C        -0.07462403426353       1.55394853162854      -0.71691288707223
C        -2.14260001352345      -1.65299582178910      -0.90585535583143
C        -2.73088437805287      -0.44297860972457       1.21212354766780
C        -3.27638042539392      -1.21802524762833       0.01683043692287
C         1.56089967567971      -0.92842333916652      -0.15336057644046
C         0.66509270314188       2.45989973157874       0.29881100889489
C         2.50223757274519      -1.74048056535362       0.74535533125149
C         1.22374227998043       3.70271926618218      -0.39001099106623
C         3.76454449733979      -2.15234597288531      -0.00685601383570
H        -0.49219054952377      -0.78193286496611      -2.00882144929474
H        -1.93684872606227       0.22781758051656      -1.91372543930804
H        -2.48224716791310       1.47425144317561       0.25891531375730
H        -1.43938504041290       1.20485222959668       1.68331637158373
H        -0.17767840264546      -1.44413126412312       0.99961320260675
H         0.59982709612394       0.02704731865243       1.54402880252714
H        -0.85088070061915       2.17958402172413      -1.21606218352037
H         0.63754219025798       1.28876620971119      -1.52998575644692
H        -1.52886379005989      -2.44206729814180      -0.42502132267509
H        -2.58130495410144      -2.10329900253400      -1.82255764927186
H        -3.58612826988469      -0.03212876403472       1.79111435683132
H        -2.18471916894053      -1.12720049951825       1.89415233030518
H        -3.98916093214146      -0.57625706813170      -0.54677185506592
H        -3.82890770548847      -2.11336147190350       0.37474141528867
H         2.11470769527121      -0.03654397240946      -0.50981156997195
H         1.29364644509542      -1.55896996522066      -1.02508868042250
H        -0.02074876588924       2.79995605746689       1.10030251309972
H         1.51820897615163       1.92449925028481       0.76240294779983
H         1.98332028448618      -2.65651198564481       1.10315020603394
H         2.79421499957018      -1.13320190560250       1.62971497034367
H         1.77179268224110       4.32400943032478       0.34946239107421
H         1.92659354094571       3.41350459177909      -1.19980362359975
H         0.39884729189668       4.30977458124745      -0.82011580208344
H         4.32149559992516      -1.25312926199722      -0.34642284494902
H         3.50261521315852      -2.77630956779943      -0.88783875226209
H         4.42091579382882      -2.74434488026754       0.66495485356683
C         5.31747247220480       2.64109488889063      -1.99416245284526
C         6.36421919534801       3.69297533046632      -2.18705634048782
O         6.08282433268104       4.73518012569523      -2.75593224498937
O         7.49997700888227       3.51384348967528      -1.77742352383624
H         4.48713640874223       3.04999841582458      -1.38139177402160
H         4.92118523500130       2.32399180661568      -2.98168582337210
H         5.74238980675977       1.75442099715044      -1.47657885935788
