46
C12H19F6N3O4S2 optimized with ADF in AMS.
N         3.30411167343287      -0.15669871685357       1.06098838911875
N         3.90007687268599       1.92968042836632       1.03633559193275
C         1.37412479498124      -1.62494303274630       0.56148572524146
C         0.68456003169738      -0.65882783472349      -0.40023544852634
C         2.89478459722345      -1.48559451906127       0.58655654422214
C        -0.83494148294227      -0.82579514198501      -0.42679308684625
C        -1.52272946396207       0.12798218850396      -1.40314430631142
C         3.58699601723033       0.87953429573591       0.26400302180238
C         3.43001485923273       0.23977981078980       2.37477975601846
C        -3.04271031178041      -0.02141207937619      -1.41063137991941
C         3.80833562028414       1.55125417711910       2.36039333804872
C         4.42065196883524       3.19920252756038       0.53215640901652
H         0.97291927609220      -1.48997926999356       1.58248493068596
H         1.14860599030189      -2.66573083146962       0.26947115318799
H         1.09228508813130      -0.80561484321486      -1.41736256357456
H         0.91758864378053       0.38343077001615      -0.11306567285761
H         3.34513866298770      -1.60481974929684      -0.41103300648151
H         3.36930244779722      -2.21757647044697       1.25547808516413
H        -1.08628544383650      -1.86856252406951      -0.69718044764251
H        -1.23910104113322      -0.66249350433172       0.59009073820588
H        -1.25423395765251       1.16866773752015      -1.14264852365798
H        -1.12679820116349      -0.04870782746768      -2.41956925502772
H         3.61799148704886       0.83846445274408      -0.81976296697876
H         3.26226833293213      -0.44145094065271       3.19939953497379
H         4.05732366238948       2.22746964896621       3.16831148075967
H        -3.46506015133536       0.18577852787589      -0.41413529680608
H        -3.51235485758139       0.67078755575325      -2.12577793694976
H        -3.33720486058934      -1.04548446651647      -1.69215061467308
H         5.47322519943170       3.06382187720382       0.25296504768217
H         3.84321158622175       3.49751116594502      -0.35041592843447
H         4.31294654905059       3.95570577060284       1.31685714950407
N         6.42158327919084      -0.75675641612183      -0.23332612444226
S         7.85609709315426      -0.61998413128783       0.51155682924338
S         6.03501212805509      -0.01519208002476      -1.60153216290265
C         7.79676553246210       1.01102725978252       1.47512583109435
C         7.22537863616371      -0.52348186572251      -3.00498382049826
O         7.87078485829273      -1.61022897913132       1.57634731627787
O         8.99086800501779      -0.44563871833149      -0.38300886586446
O         6.11934507294384       1.45003242407053      -1.57100545812973
O         4.75136298022418      -0.59915453893945      -2.02585670627995
F         8.87471278430941       1.08653723432520       2.28692249419319
F         6.67659190296567       1.07871432772799       2.25564155729885
F         7.79997090288708       2.09596710943707       0.66433046971117
F         6.55285462797178      -0.38620346723853      -4.17514346437384
F         7.60190660858834      -1.81054054864235      -2.86875372333818
F         8.30977549588099       0.26692717479962      -3.04648555896685
