48
C12H22F6N2O4S2 optimized with ADF in AMS.
N         0.71298724793335       0.32819666995114      -0.17414548707953
C         0.29258275998582       1.00166170438029      -1.47501214791833
C         0.22771335546949      -1.10945694259315      -0.20692191231241
C         2.23731741752306       0.34514007286030      -0.15500728580732
C        -1.20189881045349       0.92869258698893      -1.72550485409074
C        -1.26946199212677      -1.23507707655592      -0.45452641263158
C         0.13831772974824       1.02193440564911       1.04490525570034
C        -1.68436652738310      -0.52174562509686      -1.74046132095529
C         2.90336024092905      -0.19811749870220       1.09509324129620
C         0.57268061051848       2.46106342475874       1.22822210735394
C         4.42110817293561      -0.16730420356706       0.88415341784925
H         0.84808538070711       0.47242653636725      -2.26517112653161
H         0.67311472723732       2.02986138798617      -1.44836232938568
H         0.52222126923675      -1.57205740980189       0.74468809249314
H         0.79362918446062      -1.58724532925692      -1.02223192348550
H         2.53935070624117       1.38375201944959      -0.33753745096618
H         2.54618418026282      -0.21415674381885      -1.05096270647862
H        -1.38077110103666       1.40914298730807      -2.70146754974060
H        -1.76453109291938       1.52031361262039      -0.98206457301871
H        -1.84266371524670      -0.85066879461815       0.40640527961020
H        -1.49758895870860      -2.31298474462499      -0.51258301529087
H        -0.95295525215831       0.96147722724509       0.95546785549295
H         0.43639527602370       0.40510774368013       1.90563016260147
H        -2.77749928177346      -0.56889487844196      -1.86942604074004
H        -1.23262643655421      -1.04074759380015      -2.60519884114295
H         2.64765739938447       0.41446455116040       1.97625365498310
H         2.58260015648064      -1.23276851348342       1.30549655674413
H         0.10944441645052       2.83366600569074       2.15475283394282
H         1.66004225122370       2.56881774154117       1.33076856153235
H         0.23561106491717       3.10830417281829       0.40793992340530
H         4.94044368882880      -0.50867103523482       1.79056811159557
H         4.71141137149959      -0.82199598189777       0.04877764514145
H         4.76545743937422       0.84854691839720       0.63673380294148
N         3.92816337987423       1.76639497855272      -2.37118844975119
S         4.64423838871985       3.17840138911565      -2.06393718803236
S         3.14327716753056       1.37260945506023      -3.71453109014733
C         3.26447281453201       4.44118673903324      -1.75116046812943
C         4.39991064427443       1.24872749794845      -5.13887977308952
O         5.23073027579294       3.03850634571735      -0.73421904478557
O         5.40313533389344       3.75187901288466      -3.16522703558311
O         2.15850232304833       2.35196423934092      -4.17357917097473
O         2.70312069260303      -0.01664451639271      -3.51787812323771
F         3.76938658174356       5.47101030473615      -1.03206675542838
F         2.25363972751854       3.87820929424689      -1.00662089040297
F         2.72681973516376       4.92838445405021      -2.88130227015505
F         3.88198948878780       0.43082117588202      -6.09097362719729
F         5.56667325819139       0.72280603464448      -4.70691355462974
F         4.63048397011512       2.45279130932086      -5.69102946066332
