47
C13H28BF4N optimized with ForceField in AMS.
N        -0.69338836291317       0.53634549982281      -0.19814585775335
C        -1.66551144560060       0.28165905325328      -1.30931513345153
C        -1.24899075648675       1.61284111759761       0.68531557129628
C         0.56556603586665       1.04587549048187      -0.84384021041441
C        -0.43740799868756      -0.70178033776156       0.61870614471909
C        -3.08330137186763      -0.07726384011535      -0.83602144558816
C        -2.67269126434764       1.32622449110941       1.20731327199262
C        -3.63855443624052       1.01945564446224       0.06628103770187
C         1.76243428391669       1.29566761608301       0.10701680089561
C         0.22678647622634      -1.88103605450180      -0.13452676824714
C         2.96780607382252       1.83853319024474      -0.67337187243417
C         0.44546990479905      -3.07029631457538       0.81046534724153
C         4.17377907912895       2.04739746089269       0.23875235400862
C         1.10333228124269      -4.24258235172580       0.08764807808470
H        -1.30234978973373      -0.51561410804899      -1.98774290809224
H        -1.75874351453312       1.18940430947686      -1.95066501154355
H        -1.28316583517936       2.58478020437662       0.14099531557190
H        -0.60282727444589       1.76730961398581       1.57637278024044
H         0.35620967562012       2.00510119347535      -1.37181657250249
H         0.89854782923495       0.34785983886495      -1.64434888464318
H        -1.37843204934253      -1.08876934913320       1.05407504451147
H         0.18970804297134      -0.45199361111165       1.50240091798270
H        -3.10012323845955      -1.05742984319359      -0.31746746387749
H        -3.74381631002215      -0.17635096593414      -1.72481809527971
H        -3.04159660061028       2.22199551311757       1.75262591928785
H        -2.66762296300683       0.49096900601618       1.93795380472720
H        -3.81046449670848       1.94136173030942      -0.53201386216062
H        -4.61619770195401       0.69569480686813       0.48384253050322
H         2.07243026034826       0.35261203743818       0.60030728413593
H         1.49224912537828       2.03547333055512       0.88723987235732
H         1.21217454463250      -1.58151452017949      -0.54391623610785
H        -0.41837716057606      -2.22337414204143      -0.96835554553832
H         2.70314644668726       2.80949478989329      -1.14526297227514
H         3.24935932399607       1.12372456475022      -1.47676033024498
H        -0.53098904639006      -3.40741394914601       1.22155711036216
H         1.09584728164911      -2.76280913156323       1.65777798950900
H         4.48123438087443       1.08434566189253       0.69886940214851
H         3.93097093618191       2.77672492664289       1.04034419045194
H         5.02481033031557       2.44287086935748      -0.35456659461934
H         2.10035347562408      -3.94611982006052      -0.30191280208597
H         0.46624070902957      -4.58438359343621      -0.75564072457797
H         1.23670580151543      -5.08733503554322       0.79524538857122
B        -1.66276377928125      -2.64240505496236      -4.91382949301334
F        -0.27244051884974      -2.51817020554713      -5.17542200419762
F        -2.12192022215867      -1.48619622685789      -4.23112384781555
F        -1.89262315077749      -3.79025382045983      -4.10982846462572
F        -2.36572083788870      -2.77413248746949      -6.14055460061137
