50
C14H15F18N2P optimized with ForceField in AMS.
H         0.53893058864505      -0.31340702970438      -4.99952874292574
H        -1.17487121914664      -0.27815837047551      -4.42610400253897
H        -0.24081570747716      -1.82347072946743      -4.37348793721407
C        -0.17170605306261      -0.72212131681567      -4.25062805535790
H         2.33515663945798      -0.41273722587483      -0.36761822838529
H         2.21657166246889      -1.39546971805169      -2.85083185521680
H        -1.31516692632991       0.76957027448991      -2.10379699579868
N         0.29836670235746      -0.40825114097678      -2.90771151469939
C        -0.34069036715883       0.31607144871595      -1.96879149669721
N         0.38758101581778       0.39880033175346      -0.83780895966950
C         1.52462835711232      -0.28800474967079      -1.07395937951247
C         1.46630957056411      -0.79209121359805      -2.35743106428555
C         0.02645308214867       1.10786416105410       0.38813813990894
H         0.84117125292891       1.81556956719172       0.65550249567130
H        -0.90163544120812       1.69814018031708       0.22025115107249
C        -0.20513604971140       0.11532946234344       1.53199851556235
H         0.73359345951815      -0.44846037131755       1.72557227173638
H        -0.99540708756435      -0.60734573656708       1.23106189839654
C        -0.63642052420875       0.83971427667189       2.81226466322713
H         0.14966229987748       1.56530985362402       3.11540599155144
H        -1.57952694793123       1.39895298026441       2.62735292458769
C        -0.86468680203487      -0.14682540868929       3.95383950439380
H         0.07197391623287      -0.69989359067222       4.17920283091390
H        -1.66288252663041      -0.87105592306287       3.68449154825109
H        -1.17886922428499       0.40494917797720       4.86482591967719
P         5.13171455183123       1.72296974292069      -4.63075583575508
F         5.62622721361047       0.23267529879601      -5.34414301899879
F         3.55013299088255       1.52856549970882      -3.97362916912708
F         6.78891507664752       1.84226686045638      -5.07796294409409
C         5.41109949510678       0.70228025320333      -3.01241641459710
C         4.17470282087256       1.63519430780841      -6.31081366669713
C         5.37823484120459       3.61491828938479      -4.40082016151718
C         6.87763516645467       0.35218468733825      -2.67912606590910
C         3.12670246817273       2.74127562562625      -6.59282316122322
C         6.35567409032210       4.08298246617941      -3.30676546785187
F         4.73029676022964      -0.50434524612888      -3.11764638827529
F         4.87571943831818       1.36867774507926      -1.92112709950829
F         3.48813600861205       0.42714498485786      -6.38912799385838
F         5.09493458592250       1.67103213353955      -7.34795199964584
F         4.14767274537585       4.17853460584072      -4.11524957567558
F         5.83469527556410       4.15654615900607      -5.59145791504512
F         6.90216330397124      -0.43530387315204      -1.54164710114291
F         7.62142189763196       1.48326687810614      -2.42521127444435
F         7.47396626192297      -0.36040411206278      -3.70323832518494
F         2.40417967768544       2.38763207159571      -7.71909941896649
F         2.23143738557155       2.88969542752497      -5.55056819963171
F         3.72406848361389       3.95632698904288      -6.85807375439857
F         6.01991120170720       3.57204705409111      -2.07196185560773
F         6.29271852483867       5.46270009679856      -3.21823946788811
F         7.65908134884914       3.74610519927947      -3.62221608780472
