24
C4H12F6NP optimized with ForceField in AMS.
N        -0.00329563441508      -0.00283992820050      -0.00218221340786
C        -0.91482041543588      -1.11877464286771       0.33564197375704
C         0.64607038884070       0.49177607587911       1.23174813561036
C        -0.77540077681594       1.09410327409376      -0.62735617595089
C         1.03153270791511      -0.47939498298419      -0.94701428385597
H        -0.35851674827946      -1.95952813104050       0.80794810884101
H        -1.70325935624394      -0.78820254466445       1.04856498066587
H        -1.41969986800656      -1.51195662311703      -0.57502056499078
H         1.35107883915613       1.32353464306630       1.00702976138902
H        -0.10876965316906       0.86940647489891       1.95733604545189
H         1.21928134702070      -0.32067652245816       1.73038282985579
H        -0.11280565457299       1.94875527841968      -0.89135716066921
H        -1.27628449827279       0.74890797934086      -1.55956965364243
H        -1.56228815450505       1.47254913427746       0.06311877205848
H         1.73228181541036       0.34152745554840      -1.21950680860396
H         1.63001133519152      -1.30512786683284      -0.50084315920178
H         0.56999533297244      -0.86002327080133      -1.88574458363245
P         4.44034650416456      -1.32745082437946       2.77630649726782
F         2.97106360292417      -2.07937490442266       3.25370306072274
F         4.08722560381380      -1.72468333230051       1.14249502026943
F         3.64893603862838       0.18631819355130       2.60053861474176
F         5.90456901639917      -0.57694459309586       2.28315143068267
F         4.76367388571038      -0.93170124707500       4.41631069060194
F         5.29975220006932      -2.80091583923556       2.98071424773948
