43
C11H21F2N3O4S2 optimized with DFTB in AMS.
N        -1.45785091628623       1.57661885028027      -0.49918548841053
N        -2.73067030929604       0.35074300582559       0.73053294845632
C         0.90252404239906       2.27283164540509      -0.52795018467569
C         1.65214426698412       0.98295380318719      -0.18331082836801
C        -0.36040070198678       2.00903823976076      -1.36047524527833
C         2.72946130171331       1.23786252145490       0.87633118637722
C         3.41537440974800      -0.06840990670692       1.28769702858798
C        -1.74148054790097       0.32023850232361      -0.15898694162105
C        -2.26632218052568       2.42497219780371       0.20965020080716
C        -3.07238753872067       1.64975913635623       0.98093401920655
C        -3.32804354434363      -0.81673338903337       1.37121553107912
C         4.46902121053697       0.17572321454516       2.36624039895449
C        -4.57030653265131      -1.25439675029285       0.60625774897094
H         1.55197202936944       2.93736053206729      -1.10513751962987
H         0.61399009446807       2.79265193450166       0.38933604963323
H         2.10617360872800       0.57103843178039      -1.09151986755853
H         0.94476798621648       0.24370117244383       0.20087619579807
H        -0.68613811783204       2.92211547429262      -1.86550282229534
H        -0.18707815533532       1.23062465944871      -2.10872421686000
H         2.26390936328871       1.69190806499604       1.75635699588847
H         3.47107915745232       1.94269951369187       0.48455833735012
H         3.88336690297829      -0.52955035836742       0.41036626884751
H         2.66132447678442      -0.76255051046010       1.67216883617943
H        -1.25117973783928      -0.56469068906730      -0.52437103349864
H        -2.19930522593941       3.49402236190924       0.10849606573821
H        -3.83739367431515       1.91191297579535       1.69040956412403
H        -2.57266783690247      -1.60528515663208       1.38866599131230
H        -3.57135657871837      -0.53808970720263       2.39908717968070
H         4.00747470937859       0.59735043319087       3.25915651275473
H         5.23369527411296       0.86716714914697       2.00813595898332
H         4.94936942368730      -0.76518322787337       2.63592303947044
H        -5.31406229582296      -0.45787301899884       0.59679906419835
H        -4.99754570267444      -2.13015736129366       1.09215470969665
H        -4.31536467788773      -1.51016053218667      -0.42218522652164
N         1.00759084646862      -0.08687335694178       3.62816268590874
S         1.19122928909367       0.96431751264105       4.83738503564754
S        -0.35916470262062      -0.03174098427208       2.87817477419868
F         0.27900720111717       0.32575936750967       6.00073504704396
F        -0.34603550099078       1.42383042308505       2.07675861615479
O         2.52889914108763       0.83500589472210       5.30407883657971
O         0.64619761583225       2.26172698496304       4.61267767714487
O        -1.58348741030276       0.04009448912018       3.62344869883651
O        -0.31585740895274      -0.97614607371939       1.78960013660740
