28
C8H17NO2 optimized with ADF in AMS.
N         0.62262913113354       0.80086715119549      -0.05244570024835
C        -0.84175759772753       1.08812157071175       0.15387962162173
C         0.81510173739906      -0.53298948559905       0.65288773661676
C        -1.53756458511755      -0.26268370545964      -0.02675429131541
C        -0.45254331627228      -1.32131304001160       0.32416848138666
C         1.52224262888600       1.84233936951551       0.53269603354204
C         0.94223937506886       0.63718584055452      -1.51171593936568
H        -1.16046841195697       1.87774630893107      -0.54112981088011
H        -0.93983999681557       1.45409376458365       1.18672971006290
H         0.89726212769078      -0.29829602026600       1.72418590311765
H         1.76882358224951      -0.95367553887554       0.27587740024280
H        -1.89420211151746      -0.38971080791516      -1.05959336229620
H        -2.41786372733245      -0.32810058463578       0.62916456026759
H        -0.74706556336977      -1.94318529525678       1.18142087444815
H        -0.27922586742378      -1.99970599726501      -0.52447370871813
H         1.43567317000486       2.75487126743219      -0.07125484029204
H         1.19429153674386       2.03571825254053       1.56282130929292
H         2.55902934066947       1.41188100839392       0.53285856417963
H         0.22071686402954      -0.05775866771291      -1.95702025320544
H         0.86205709362120       1.62129825578277      -1.98990997757373
H         1.96532843143887       0.20592613636980      -1.55926883908698
C         5.64763479124418      -1.10392195099892      -0.25980442179038
C         4.24268634200304      -0.49875422067227      -0.16307150757075
O         3.36320295466693      -0.97656605493848      -0.95565564668061
O         4.06251831839761       0.39924263826558       0.71213173190679
H         5.86952999537737      -1.41380086697659      -1.29077858853928
H         6.40418917450907      -0.39469078866950       0.10376183316429
H         5.69026786929960      -2.00318905592355       0.37568687111317
