53
C15H29F6N2P optimized with DFTB in AMS.
N         3.18040072476401       0.01169094545251       0.09373809843537
N         2.94029692524924      -1.75657262526832      -1.10927282820578
C         2.12361942250662       1.85402892535045       1.34936451974381
C         3.30986151508850       0.89009084274132       1.25611369439884
C         1.33889767370757      -3.64009809469506      -1.08706351159579
C         2.73007675075557      -3.14929648402160      -1.50248178184299
C         0.79328777485163       1.10593190993236       1.45941524990184
C         0.21544648003753      -2.70550051385980      -1.54158199848958
C        -0.39706892786255       2.06008303626409       1.57220848325344
C        -1.13063992494448      -3.16041888656131      -0.96906591297372
C         3.12623867571568      -1.31712529441049       0.13448981381447
C         3.01642692979149       0.43133860390988      -1.19958800731463
C         2.85947291571725      -0.68491181979650      -1.95727792043473
C        -1.70208272201744       1.26315017565800       1.67330886826991
C        -2.23438786506411      -2.14872109886022      -1.28981945282303
C        -2.91364549564457       2.18259471344436       1.80977069869380
C        -3.56831527185164      -2.57093013619707      -0.67680290411731
H         2.27942624970054       2.47363233772722       2.23743791039680
H         2.11716872588334       2.51556117784395       0.47666693205454
H         1.30954887887954      -3.74063512981098      -0.00124988126792
H         1.20167222277786      -4.63438987978571      -1.52182568026424
H         4.24845355251173       1.44459292269445       1.15853327434549
H         3.35658487880897       0.25120079501643       2.14040343208355
H         3.50142775249699      -3.75612240071502      -1.02080985441563
H         2.85966644760372      -3.20090595682715      -2.58697750010576
H         0.81877784521587       0.45658339992220       2.33728874059070
H         0.66305015416088       0.47078663605400       0.57811653704088
H         0.17310272851929      -2.67396991582623      -2.63666434864554
H         0.42376803054021      -1.69246325908926      -1.18350225719014
H        -0.28083440145429       2.69116521072778       2.46007289215534
H        -0.43103216707859       2.71793396524429       0.69571044156434
H        -1.03868405849709      -3.26206539085781       0.11622036879209
H        -1.39443994557240      -4.14109154457175      -1.37901041068074
H         3.21816490148979      -1.92915267892105       1.01581081161062
H         3.02685864261838       1.47117716336871      -1.47425903598772
H         2.70401467421137      -0.80341511312025      -3.01516016312808
H        -1.81567926411056       0.64183610537816       0.77812499595906
H        -1.65006403891250       0.59405990752517       2.53775028636239
H        -2.34302699498505      -2.05168930653513      -2.37621417721226
H        -1.95010454072340      -1.16725085595192      -0.89376549198371
H        -2.83178036378844       2.79279455640451       2.71051809245015
H        -2.99138386673965       2.84675565553104       0.94714335603504
H        -3.82628514296806       1.58966962717502       1.87440669644401
H        -4.33914309529418      -1.83684540136887      -0.91362872636564
H        -3.48020477703622      -2.64564492664195       0.40756910501137
H        -3.87952162601815      -3.54088255259438      -1.06751611785161
P         1.11475105893466      -2.55526036007226       2.73835819868069
F         2.27989529041156      -3.49912586458094       1.99257134893464
F         0.84395689681024      -1.81841926353178       1.24512422903597
F        -0.02212274886413      -3.66711483616916       2.37220230576131
F         0.00398362545543      -1.56387546043969       3.40756089214641
F         1.43414259251375      -3.25675594282764       4.16255149410086
F         2.30721728739829      -1.40912497845656       3.01468382092885
