32
C10H16BF4N optimized with DFTB in AMS.
N         1.41255544635488       0.44903770999033      -0.38094318189449
C        -0.92537841130113      -0.11634437707150       0.09410369785524
C        -2.34577065300151       0.05969462915722      -0.44646770279660
C         0.10186300608836       0.21045663499275      -0.99763117333665
C        -3.38118855004049      -0.23919344211229       0.64176456076281
C        -4.80361202878423      -0.04475285356800       0.11933301944837
C         2.09689449389401      -0.58943338310720       0.13924753020626
C         1.83660886750438       1.71001798569719      -0.21932509746681
C         3.27403931264556      -0.38015833532342       0.81379021862837
C         3.03179452534530       1.96846135286917       0.44103197116245
C         3.75385116398259       0.92241563806735       0.97490975754776
H        -0.77068421333024      -1.13971533680680       0.45091411317828
H        -0.77076601644162       0.56797935730061       0.93138797808313
H        -2.50406204297129      -0.60462831441192      -1.30374223700169
H        -2.46482094701020       1.09275926174340      -0.78730194184853
H         0.19824915361565      -0.60896579468038      -1.71534120018292
H        -0.18844427522919       1.12399949537330      -1.51979407682929
H        -3.21211794050536       0.42815338135647       1.49257082853062
H        -3.25800651693253      -1.26986953185227       0.99290787500555
H        -4.94915311323000       0.98343764286268      -0.21355630958319
H        -5.52355283408805      -0.25981019854288       0.90918335425491
H        -4.99861923589318      -0.71311371085807      -0.72088988844613
H         1.67751284363461      -1.57694192477751      -0.01102420944603
H         1.26184732291028       2.49533952039227      -0.69211461342662
H         3.81345319321822      -1.22625476845119       1.21982614139240
H         3.34267797971857       2.99862827889338       0.55635663368850
H         4.67899148863881       1.09855455704094       1.51013780647651
B        -0.22644853995947       3.37155064360222       0.85901118044034
F        -1.11863098951257       3.90830348508052       1.73335717785107
F         0.45131254333408       2.23972697885587       1.46495825810629
F         0.77359659877168       4.25843229287475       0.46058969027854
F        -0.85814764242593       2.85103830801301      -0.29646278273844
