53
C17H29F3N2O2 optimized with DFTB in AMS.
N         2.97633020464503       0.00883471860246      -0.33724918194945
N         2.71469731273970      -2.06352365256196       0.18933180392713
C         1.57766271787711       1.86601980247840      -1.13330881630232
C         2.83779320084515       1.46049412641247      -0.35887429657642
C         0.94093126173793      -3.16929311991138       1.54365750439880
C         2.28799948497603      -3.30555736504790       0.83667936965315
C         0.30185284408574       1.62244194194480      -0.32402738756769
C        -0.19020552654122      -2.88359176036860       0.55176856593764
C        -0.94654137524169       1.90238459112740      -1.16588989567474
C        -1.53720970587807      -2.72082906291392       1.25873374409225
C         2.45324210682185      -0.81514402370815       0.57329813174777
C         3.55861499805084      -0.73017865208641      -1.33134472970105
C         3.39412445854412      -2.03554698432079      -0.99546107788927
C        -2.22076878278601       1.69250985162607      -0.34309970746009
C        -2.65272712451224      -2.47386820369894       0.23745641562795
C        -3.47267081845534       1.88542216521696      -1.19652743306685
C        -3.99509109266634      -2.22308499431961       0.92126182773760
H         1.66298671818829       2.92859970678173      -1.37803887989038
H         1.54073527455416       1.30198174406797      -2.06877149422382
H         0.99128124915561      -2.38621587235914       2.30807573750039
H         0.75262187953256      -4.11752956107653       2.05653740676346
H         3.72986597181216       1.86584585978623      -0.84307674812399
H         2.79896478032492       1.81793579359198       0.67424945666415
H         3.06917091244876      -3.60244388156824       1.54494886783159
H         2.21811259301398      -4.05064036877281       0.04036502377889
H         0.30615812069642       2.26128992627716       0.56687266184093
H         0.27765406898370       0.58046564910832       0.00997638522972
H        -0.24429160072055      -3.69971241192771      -0.17350700818602
H         0.04000469227855      -1.97139293041445      -0.00285631982353
H        -0.91481042074500       2.93096785759295      -1.54104315704126
H        -0.95257715727096       1.22859860130210      -2.02791407182092
H        -1.48460328212124      -1.87728749958018       1.95746606700688
H        -1.76361953048922      -3.62188250978142       1.83948902090539
H         1.94455688577743      -0.51234687417329       1.47093558986265
H         4.01181320172955      -0.27424082037745      -2.19307770307598
H         3.67924608761757      -2.93644800356379      -1.50716345857273
H        -2.21931892403573       0.67938867954403       0.07276764577787
H        -2.23604879011041       2.39690163097497       0.49626297630948
H        -2.73543051559034      -3.34119356731010      -0.42488859191692
H        -2.39218454941676      -1.60788328683562      -0.37974909119691
H        -3.50852649667532       2.89808488938960      -1.60072995672798
H        -3.47835205868064       1.17930549554564      -2.02760771054298
H        -4.36563647821124       1.71951877020773      -0.59326695850148
H        -4.76951480117540      -2.05363814128912       0.17277214097575
H        -3.93811621558409      -1.34440022512847       1.56611536673015
H        -4.28227397544749      -3.08183148488571       1.53003312749761
C         0.98192517157124      -2.99062477351087      -3.09197760146763
O         1.37882949048264      -3.34971527464965      -1.98222332804300
O         0.76832943916683      -3.54169730237334      -4.14415462882312
C         0.71317580392197      -1.34739247441731      -3.12205121265480
F        -0.25646124677503      -0.92433824495460      -3.93951618214263
F         1.83810050160431      -0.65879684410516      -3.47180081148572
F         0.39558644484612      -0.86822698208637      -1.88356027644750
