55
C15H20F18NP optimized with DFTB in AMS.
N         0.28597482075408      -1.59930441268685       0.01020001906323
C         0.53544117313100      -2.88320313417291       0.77220701128745
C        -1.01924386928163      -1.04311328151800       0.53823447479673
C        -0.79635951304695      -3.25551062143010       1.39745108708577
C        -1.39073834675194      -1.89557868343709       1.74531389969263
C         1.39057440772267      -0.61628052745328       0.27334452689676
C         0.15941793242746      -1.91938973359236      -1.45425765272349
C         2.76201375234945      -1.06463472115089      -0.23196946312027
C        -0.09045953802623      -0.70963239366368      -2.33935067458271
C         3.83266954372257      -0.09831391484607       0.26987169370262
H         1.28112741761883      -2.68536925474610       1.54327817079593
H         0.91435012262127      -3.64234672320118       0.09482076300216
H        -1.77390812324613      -1.14435093314528      -0.24294058133975
H        -0.89645354075487       0.01271817894231       0.77872378366222
H        -0.65347055349168      -3.88729761325335       2.27411073684997
H        -1.42754485280716      -3.78279576317636       0.67825554064803
H        -2.47205633335662      -1.92819234274672       1.88125622209168
H        -0.93061831377812      -1.49763016140206       2.65352762891030
H         1.41840467696421      -0.46660959250271       1.35645461728609
H         1.10619325890003       0.32897950938428      -0.19593021631534
H         1.07958033538830      -2.41650912475891      -1.75893493037343
H        -0.66111822324843      -2.63420627641640      -1.54289958284942
H         2.98565481109751      -2.07074849593726       0.12205481513798
H         2.77586142332096      -1.08152288895067      -1.32385881779736
H        -0.96237837607788      -0.13879729148782      -2.02265803840132
H         0.77393999245165      -0.04817657943411      -2.36911958536035
H        -0.26938662149371      -1.07742675048097      -3.34946458022138
H         3.63489861381364       0.91423368932345      -0.08474915080334
H         3.86383567612759      -0.08804923890851       1.35990623001719
H         4.80647796797587      -0.41333053999202      -0.10256908001941
P         2.66688034028537      -5.54767882850519      -1.42599251759880
F         2.56627542173462      -3.83478269307199      -1.29525634426209
F         3.55330418038878      -5.43767033064590      -2.82972069495412
F         1.76535080821893      -5.63691992694771       0.01712647387853
C         4.31685611790382      -5.27992594998456      -0.39330400799871
C         0.98692097001340      -5.26466139512954      -2.48521244478186
C         2.57638529851230      -7.53521684282040      -1.55015033895162
C         4.19066431775875      -4.97251137697872       1.12307002802955
C         0.28507897349697      -6.22451776759247      -3.48958843502372
C         3.55995260175503      -8.57577513004854      -0.94729397084684
F         4.98706924767679      -4.23976520513332      -0.92268860098093
F         5.12057094878189      -6.35163038684065      -0.50082716854803
F         1.21916438594280      -4.16829741809002      -3.24600910873940
F         0.01087137775759      -4.89849318836048      -1.61076902447250
F         2.51851139326558      -7.81320669225980      -2.86824454616305
F         1.37197795942604      -7.85291132950688      -1.02929640624467
F         5.37641517396912      -4.65091761412752       1.63799990503742
F         3.71234203351929      -6.00502134510333       1.80317476159038
F         3.37263179489886      -3.92559758454753       1.33978750861941
F        -0.79086602928203      -5.58153910800762      -3.97139426736383
F         1.07175036212398      -6.50773826593736      -4.51913078744225
F        -0.14615719456975      -7.35290526050958      -2.94731045304120
F         4.72287236085849      -8.58208944601353      -1.58628227476092
F         3.03120440957438      -9.79543269478812      -1.05555477647912
F         3.77514557386329      -8.34406251300767       0.34634807817922
