46
C14H29NO2 optimized with ADF in AMS.
N        -0.78308042873724       0.64136922775896      -0.34917454395614
C        -1.33184865256002      -0.53107151127054      -1.13198449286751
C        -1.91279478417664       1.34532697644826       0.39517413581425
C         0.25900775096059       0.20974218479933       0.66935711399253
C        -0.18949996938239       1.60874641080183      -1.36139310140748
C        -2.11390437484851      -1.50807344246498      -0.27048580700488
C        -2.73655087253793       0.39027682069900       1.24405004301757
C        -3.26449716656845      -0.80167048275913       0.44743801387250
C         1.49453624046108      -0.46157941116976       0.10068917336928
C         0.50804850029786       2.82378575286556      -0.78293518755475
C         2.50496103085818      -0.66437216705946       1.23646650793192
C         0.96527601820560       3.74179049008725      -1.91372882039907
C         3.81161607772580      -1.27325177755736       0.74022242776465
H        -0.47841444518360      -1.01204982373703      -1.63098479596897
H        -1.98744226622372      -0.09772011727187      -1.90564751798031
H        -2.53982732427410       1.80495813004125      -0.38799137287102
H        -1.42254308637863       2.11625559016936       1.03330722863832
H        -0.25118972043881      -0.46001788596793       1.37265175785497
H         0.56958911726377       1.12609705542296       1.21922969467216
H        -1.03798569827374       1.91063427590704      -1.99924991582246
H         0.49987319796953       1.01485825366332      -1.98285521629602
H        -1.44344493143795      -1.99232402577313       0.45935387546837
H        -2.48959967730384      -2.30704438077128      -0.93173037402075
H        -3.56629250397119       0.98100759396436       1.66603922806575
H        -2.14293379655061       0.04997055277738       2.10824634734782
H        -3.99196731143708      -0.44535008962278      -0.30602430693190
H        -3.79850112787498      -1.50770636606172       1.10393851609208
H         1.96712725370838       0.18312512180486      -0.65979181913171
H         1.27155368590235      -1.43333462196393      -0.37885607337626
H        -0.15962292733967       3.36315640192423      -0.09341514578584
H         1.36234135560859       2.52671719797871      -0.15410544875439
H         2.05765417295078      -1.31310708069751       2.01130503910187
H         2.68257546883043       0.31581448451339       1.71025810737021
H         1.48147298034315       4.61845356104341      -1.49643833578545
H         1.66776872682168       3.23237469902659      -2.59408418666134
H         0.11351608233096       4.10584780078955      -2.51198941030299
H         4.28397025083131      -0.62033614094181      -0.01169791948038
H         3.64718272016617      -2.26025683814047       0.27639623883747
H         4.52729975350248      -1.40125107379877       1.56601213935198
C         1.19986406855394       3.94918294867448       3.81469614713713
C         0.80838988484262       3.08732493408237       2.60989075638623
O         1.72389119308973       2.38822894240316       2.07524164979196
O        -0.41323221019990       3.13774247775526       2.25891109029340
H         0.80921805753940       4.96979307878430       3.69119788955036
H         0.72903028845176       3.53013007351864       4.71809212948956
H         2.28884143598286       3.97164962182464       3.95545991184727
