46
C12H14F18NP optimized with ForceField in AMS.
N         0.58980154837997      -0.00452677014230      -0.00517328029572
C        -0.30037682530123       1.07042770459964      -0.52351069877833
C        -0.30364377630504      -1.07428670531847       0.51812223829273
C        -1.71655665173522       0.75342657575401      -0.07816906964541
C        -1.72207712867315      -0.74400370111360       0.08952485574161
C         1.45609173406429       0.51940077953428       1.07718333777562
C         1.44698881723841      -0.53310178353073      -1.09241639413974
H        -0.29709708581039       1.11379301440250      -1.63802855323955
H        -0.01011130924869       2.08662044638761      -0.16965288737707
H        -0.28767966239592      -1.12387482371077       1.63225622029689
H        -0.02679368597328      -2.09067753086533       0.15517362674977
H        -2.47042522397750       1.08387032006003      -0.82580790789255
H        -1.92172975635638       1.24178504138512       0.90026954164356
H        -2.47016088839180      -1.06810186818952       0.84559866696417
H        -1.94284332126374      -1.23015528976067      -0.88667170526669
H         2.13812137428046       1.31100299361894       0.69317234036265
H         0.84503206966752       0.96350593960823       1.89521851445999
H         2.07941154793251      -0.29292459856349       1.51402186874745
H         0.82902919071742      -0.97241953568123      -1.90773185560921
H         2.07369691825250       0.27550650016361      -1.53127024254109
H         2.12545228772596      -1.32927354762342      -0.71328958097582
P         5.90002441116592      -5.15505773264030       1.87677012051609
F         5.58148826279697      -6.56328889519381       0.93838314383637
F         5.09788559009554      -5.21068683997346       3.40165928929399
F         7.01756830594638      -5.01486975627870       0.57641566459182
C         6.93421961555637      -6.48186183853754       2.84255187116407
C         4.15605711480523      -4.89281657139553       1.07612368622569
C         6.54232802104972      -3.34605144635008       2.10292428814443
C         8.05089231314362      -7.22944195592284       2.06417830753424
C         3.36375683543469      -3.63926341248975       1.50502348454309
C         7.96577335944562      -3.16731598503635       2.66698506847931
F         6.07347994519836      -7.46152074691700       3.32264999165718
F         7.52338744491751      -5.89665971335901       3.94542182605969
F         3.33611171207081      -5.97657523022661       1.37766062424376
F         4.30138239399109      -4.82865605807547      -0.30265359914896
F         5.70461925299338      -2.68666303969483       2.98425809794990
F         6.47893480420156      -2.67094998096003       0.89139506920697
F         8.76011804386399      -8.01639201599270       2.95469296853151
F         8.94431750741635      -6.36631335129291       1.46739008548554
F         7.52347720725217      -8.06708740708575       1.09777696226174
F         2.09109227045732      -3.71398330920596       0.96599089070080
F         3.23385752103365      -3.56547398212821       2.87907836030501
F         3.94556323414176      -2.48266994262762       1.02623093386638
F         8.00402900480821      -3.47927678773823       4.01252073754008
F         8.33167278612058      -1.83868150967807       2.54086345771360
F         8.89324615666652      -3.92357615941368       1.98571303842444
