28
C8H17NO2 optimized with DFTB in AMS.
N         0.68147190259963      -0.05606384556341      -0.18623981263087
C        -0.11608849243906       0.54679610580271      -1.30325139465103
C        -0.12146695064886      -1.25908621752165       0.19788212111792
C        -1.57700999131947       0.33607599288520      -0.91719428015306
C        -1.57463682362357      -0.80953542407534       0.10842850083900
C         0.79021419466912       0.88661616038267       0.95377936784848
C         2.03840295964301      -0.44530869438934      -0.64525835029959
H         0.13310708497473      -0.03088816307220      -2.20089380228265
H         0.16808514373905       1.59199062063413      -1.43156063375464
H         0.18614223130895      -1.60713750849313       1.18466529028779
H         0.06913140072837      -2.02238516032638      -0.56002059231081
H        -2.13924769857514       0.04598843982272      -1.80585117179066
H        -2.01812973439272       1.24087886638677      -0.49188413170586
H        -1.95484393780735      -0.47362243503442       1.07662688690100
H        -2.18240553033102      -1.64290402370476      -0.24539858761704
H         1.33783621355339       1.77032146594030       0.63011560816280
H        -0.20626054944374       1.17157039567082       1.28408410550110
H         1.32474909270225       0.39900631428709       1.76770555630207
H         1.92043733915155      -1.08855068250520      -1.52476383742344
H         2.59029665916278       0.45387821607091      -0.91341859564716
H         2.54517147793629      -0.97414107263946       0.16013961874867
C        -0.32820810401923      -3.32531422908825      -4.29919828535967
C        -0.15525307454120      -2.28246441932604      -3.17056851766333
O        -1.12248977653263      -2.12859618874822      -2.39686533265387
O         0.94052502081298      -1.67604890834073      -3.11932167691754
H        -0.54510636922102      -4.29545677784730      -3.85378922626747
H        -1.17220097514322      -3.03295579637630      -4.92257308051903
H         0.57434287385612      -3.38797616623117      -4.90376999356111
