47
C13H25F6N2P optimized with ADF in AMS.
N         2.26272847713584       1.18466416775186      -0.25047846348624
N         0.16233533801284       1.46260430756675       0.24196094179277
C         3.50311176018346       0.76727620647672      -0.93677892420929
C        -1.30144500548894       1.34132867594443       0.15933505969999
C         3.45102757128749      -0.66462682112639      -1.46632613032710
C        -1.78812051822507      -0.03832517202115       0.59720179175397
C         2.88120126641507      -0.82689754924966      -2.87413839138656
C        -1.66437203825461      -0.29678582179227       2.09567641341933
C         1.01249517525150       1.06909380134963      -0.71788730563580
C         2.20521517405676       1.64855117838179       1.04399223514920
C         0.88904771234029       1.82398865939447       1.35427996922354
C         2.86640017042320      -2.29202728844835      -3.30785329519460
C        -2.13521046721336      -1.70054202853828       2.47573711080976
C         2.32430420405211      -2.48592185737203      -4.72068038826528
C        -1.95658925485917      -1.98381441715453       3.96457237372512
H         4.28569620875773       0.85571239394683      -0.17320522839871
H         3.70954427899796       1.49637045766984      -1.73807171497707
H        -1.58106167938338       1.56059661205835      -0.88206992170516
H        -1.72365598875680       2.13569167538099       0.79440828729220
H         2.90401705359123      -1.28684641658934      -0.74326875774423
H         4.48762048688580      -1.04368476190316      -1.46225395984295
H        -2.84398643874435      -0.12515541746897       0.28245559534703
H        -1.21735675581242      -0.80732045680136       0.04811398091709
H         3.47579111257856      -0.22985243419402      -3.59261592244152
H         1.84704521018209      -0.44110095625838      -2.93844452869375
H        -2.25610448386905       0.45813586804305       2.65064564285675
H        -0.61211477566128      -0.19829815888115       2.40646186958949
H         0.73171943635001       0.69365729901410      -1.69041836699343
H         3.09258263278347       1.74496852766739       1.65490682057819
H         0.41478784041315       2.12358678054798       2.27910692616102
H         2.26536354213726      -2.86980370636560      -2.58381793032614
H         3.89322869209444      -2.69409255658260      -3.24087925698250
H        -3.19445466433582      -1.82813110362583       2.18328614002132
H        -1.54355641071631      -2.43160197726997       1.89897516110465
H         2.93871507596795      -1.94392632796825      -5.45765709891811
H         1.29142693324666      -2.11014828667211      -4.80405986974489
H         2.31755721559700      -3.54925687197175      -5.00351679407722
H        -2.52523337895147      -1.26518736892121       4.57775406653854
H        -0.89243688407145      -1.91302386147029       4.23524699881553
H        -2.30257512196757      -2.99698891215172       4.21972742280352
P         2.15894760391563      -1.90349374692821       2.13064542653922
F         0.91948719562441      -2.89593123179197       2.55262300503977
F         3.08908227517649      -2.47501048209592       3.34589127814865
F         2.74966413963628      -3.03182986500733       1.08445624208576
F         3.38864474748699      -0.85958339928252       1.67120836952220
F         1.21178512477804      -1.28770573368379       0.87662253004501
F         1.55772928385135      -0.70870926950608       3.12193084297090
