38
C10H22BF4N optimized with ForceField in AMS.
N        -1.44928319272901       0.39532549613837      -0.08563205424797
C        -1.76024418285081      -0.87197069386716      -0.81004277460909
C        -2.53945969230581       0.56447473934045       0.91546206930592
C        -0.13857342025735       0.31189158387881       0.62942309495241
C        -3.02101070581326      -1.47395838991688      -0.20692390221213
C        -3.69178613459526      -0.32747094895977       0.50151091924297
C        -1.47108868821186       1.54883433960707      -1.02242033660980
C         1.10251348377329       0.29692217292338      -0.29398160114889
C         2.36263318610266      -0.08436777012203       0.49377894970325
C         3.60612571519303      -0.05047051079177      -0.40163850297805
C         4.85859450759249      -0.43740870883492       0.38011661753471
H        -0.94289496015243      -1.62391668440291      -0.74318504802262
H        -1.94080627759274      -0.70107192889560      -1.89728280868228
H        -2.88446212193810       1.62023107445486       1.01377524551857
H        -2.22238749665093       0.24319231591573       1.93567377668463
H        -0.12195075761660      -0.60358983857132       1.26586071793297
H        -0.03282686010099       1.17771299315233       1.32109137488334
H        -2.74503113765024      -2.25849634002189       0.53298869484141
H        -3.68288381856050      -1.91571900777364      -0.98322895725012
H        -4.35851589844395       0.21610166678165      -0.20330906232678
H        -4.27939719906333      -0.67612403226054       1.37896985296509
H        -0.78584223072637       1.38597820598407      -1.88281087575781
H        -2.49029361016058       1.70023621451140      -1.44450312248330
H        -1.16808338353512       2.48680094543702      -0.50556016106416
H         0.96527273364161      -0.42344062685995      -1.12751989101072
H         1.25112514476712       1.30960223668274      -0.72706058447996
H         2.23882337402698      -1.10883956780463       0.90963335211063
H         2.49839205122277       0.62658868550387       1.33885032144554
H         3.74233062146098       0.97264695138443      -0.81524821900579
H         3.47794410227806      -0.75937698646650      -1.24862239067063
H         5.02311824543128       0.27063009549271       1.22028314211681
H         5.74207885312855      -0.40290973704491      -0.29169030640334
H         4.75936267666654      -1.46820511223815       0.78262718269018
B         2.29688114696535       3.82292969815716       3.08849778780426
F         2.53404192055030       3.73911570469313       4.48629284192213
F         1.26752504248743       2.91467214953497       2.72962520800858
F         3.48590725057357       3.49336938192274       2.38491684483497
F         1.89850545969321       5.14455722413567       2.75409615256506
