34
C10H16F6NP optimized with ADF in AMS.
N         0.06256116259861      -0.55108253131346      -0.75688406270171
C        -1.85717157117094       0.96157894349938      -0.28353954772744
C        -2.58060302195210       2.22863149338567      -0.74305473778614
C        -0.66686272518269       0.66873408093419      -1.18808411026911
C        -3.69817558430720       2.65168640136632       0.21582652855006
C        -4.82274320033884       1.62629777264706       0.33669363001010
C        -0.17927426626513      -1.73027907047716      -1.36408430831344
C         0.87613692889543      -0.48022308350317       0.32038439977734
C         0.41976311400443      -2.89082138092247      -0.91116659510357
C         1.49775797836646      -1.61015373152227       0.80552413554825
C         1.26400410830022      -2.83632771780369       0.18773065258708
H        -2.52700143547263       0.08916467948145      -0.28689243036388
H        -1.50896772365128       1.08143461554158       0.75776608271610
H        -3.00967178304781       2.06230153232873      -1.74936977781881
H        -1.85468657594841       3.05848861156762      -0.84125744082544
H        -0.98853868672536       0.49639259003403      -2.22532440585036
H         0.06192189529933       1.49530294920153      -1.19019198793119
H        -4.10708697858142       3.61611902078254      -0.13410202089145
H        -3.25815177482887       2.84419535776542       1.21252525344078
H        -5.26997478138748       1.41882786210426      -0.64967667693240
H        -5.62148650608844       2.00104721376546       0.99450437165073
H        -4.47090656372042       0.67160800097398       0.75240800529546
H        -0.87985741364728      -1.71439830542363      -2.19335676512530
H         0.98606201984067       0.50217916028554       0.77413815402090
H         0.17192585794538      -3.83354577244952      -1.39519853779667
H         2.13740228380986      -1.52906768590899       1.68361806790710
H         1.71202315451308      -3.74904963435112       0.58249304211240
P        -2.75971379309386      -2.84324654759965       0.96194116161651
F        -1.51541813542053      -1.78264300758438       1.33831837548855
F        -1.61982535860947      -4.00345173349905       0.60254751132527
F        -2.80716235779028      -3.34139841566676       2.51831816516492
F        -3.95827845127988      -3.86923427422308       0.53655913984426
F        -3.84751652028084      -1.64097516163240       1.26935178927271
F        -2.66674561528231      -2.30559443848394      -0.64038009519159
