25
C7H16ClN optimized with ADF in AMS.
N         0.27946064809837       0.11204220568854       0.10817492139163
C        -0.44324721083112      -1.14227180511591      -0.30617143411845
C        -0.75120037940241       0.82799232195980       0.96844146278838
C        -1.88730072050711      -0.70125452532880      -0.57500386022139
C        -2.07252917894920       0.61161215425944       0.23733541770684
C         1.52342697414045      -0.14595845030699       0.93581478359249
C         0.60885722566214       0.96836027786065      -1.08373376746006
C         2.61738180659650      -0.88735015436266       0.19769730670061
H        -0.38519348875772      -1.82935843370217       0.55192329780408
H         0.06317653624144      -1.59192573725312      -1.16962532159532
H        -0.38250790890983       1.86676862026460       1.10877331465789
H        -0.73961730964031       0.30600182210423       1.93774854307637
H        -2.58497880260025      -1.49158381912441      -0.26016258594548
H        -2.05365180958129      -0.52861705268817      -1.64868523195468
H        -2.29930528317122       1.45757661358218      -0.42821558741692
H        -2.89862858479221       0.53860861949893       0.95922841228130
H         1.84301873879005       0.87359956578556       1.25528658810897
H         1.17131734950205      -0.71781681701292       1.80889768480468
H         1.27772636298548       0.40376295964220      -1.74378621120501
H        -0.32309459234728       1.20757352174547      -1.61030602696393
H         1.08192898847348       1.89116614171403      -0.67548914531587
H         3.42124798554951      -1.09650416495732       0.91973174664983
H         2.28850008736839      -1.85262323457654      -0.21863610203359
H         3.06063663358198      -0.27535399956371      -0.60001386907908
Cl        1.57512575790010       3.16947144578710       1.12497730244672
