41
C11H22F3NO3S optimized with DFTB in AMS. Optimization did not converge!
N         0.68106264656976      -0.31731887381267      -0.09764499895383
C        -0.69213636050521       0.12332704893403      -0.48979571236659
C         0.80638169995393       0.16684209329166       1.31850619365172
C         1.72145944809028       0.24183061811551      -1.03462901055723
C        -1.55467636372061      -0.08108091972264       0.75289675116582
C        -0.57356825336272      -0.03958547859612       1.93530561151202
C         0.80093575355554      -1.82063297719046      -0.08070824680769
C         2.02936887100095       1.72725373867810      -0.87112071024564
C         0.63205874540065      -2.49472342467384      -1.43184890045081
C         2.88951934924121       2.18713929224290      -2.05444657770964
C         3.29960150890212       3.64950985637928      -1.89874861974892
H        -1.03309697819254      -0.44229280092872      -1.35603434736653
H        -0.63627233925963       1.18092537937666      -0.75440703369556
H         1.59449427773850      -0.38617160382838       1.82714621777315
H         1.06245756299131       1.22499670450334       1.29696421103747
H         2.63343830090493      -0.33595856447444      -0.87507694544993
H         1.35234269991836       0.04703687276234      -2.04539239928774
H        -2.30481371613380       0.70876793054124       0.82259384048737
H        -2.07498905077009      -1.04010865487007       0.71080763241724
H        -0.61318737670034      -0.97076749894441       2.50387858510524
H        -0.80453793113357       0.78087974434743       2.61682211649683
H         1.79636673840561      -2.03669265100625       0.31303970998700
H         0.05546670485170      -2.20121661423428       0.62006850982630
H         1.11318924977313       2.32445110751719      -0.83043008671338
H         2.59356403069951       1.88392087770444       0.05087987684556
H         0.75312774759553      -3.56590449509907      -1.27125204247449
H         1.39153446540684      -2.17357342302127      -2.14180753860818
H        -0.35536995907520      -2.32599929830015      -1.86056804614665
H         3.78660908400045       1.56248268155897      -2.10883494068932
H         2.33166027999598       2.05834847122607      -2.98865901744395
H         3.89725487514424       3.78434530050231      -0.99735674106573
H         2.41959328653037       4.29135416644970      -1.83174921678858
H         3.89265811554693       3.96219817440478      -2.75829995177327
S         4.00206315240130      -1.14444082362109       1.25464018806660
O         3.84860066151224       0.30328373150752       1.19142455791646
O         4.02163059392069      -1.79143003303084      -0.05026182153341
O         3.10988803424081      -1.78462695564979       2.21187832146016
C         5.69967651946365      -1.40843462097822       1.93377361273023
F         5.82847480119085      -0.81281607023252       3.11244737529901
F         6.60965607996722      -0.90615584635075       1.10819279982501
F         5.94201269553901      -2.70348891317750       2.08866023527391
