45
C13H18F6N2O4S2 optimized with ADF in AMS.
N         1.91358817065292       0.44402156713773       0.36024545022532
C        -1.79080220286764       0.54313000644531      -0.53221827622869
C        -0.52362761751329       0.00987444477511       0.13185566311820
C        -3.04815275168353       0.05549846195421       0.18225394455007
C         0.72620119686675       0.58846858006547      -0.52248418474736
C        -4.32828838244981       0.65042215563050      -0.39921331068998
C        -5.57153033675016       0.20495005467574       0.36630413925342
C         2.32843074490374      -0.79778007821945       0.71084559169052
C         2.49903519159993       1.54614930621227       0.87643853776423
C         3.37474299264582      -0.96309660174031       1.58956144111361
C         3.57154890423787       1.42389581353989       1.74525475052526
C         4.01014064273745       0.16401356397586       2.11666954025058
H        -1.82015484067966       0.25562234004172      -1.60038719133085
H        -1.76231292618187       1.64622395522645      -0.48905971600873
H        -0.53263503088287       0.30253987747261       1.19277102586825
H        -0.50667015322599      -1.09436354989873       0.09585996362704
H        -3.10047658442302      -1.04907922997081       0.14196765339052
H        -2.96995090074784       0.33665548053475       1.24762997368027
H         0.59573071240560       1.66602163115063      -0.68406465545889
H         0.96875761146897       0.10474481104874      -1.48212482263609
H        -4.25047253648966       1.75238073017687      -0.37140128130405
H        -4.41821381045505       0.36735763484452      -1.46431752264383
H        -5.50735400959178       0.51531193600264       1.42122675914021
H        -6.48884161920394       0.64051040299034      -0.06009431310181
H        -5.67543353951233      -0.89184983016802       0.34523531692636
H         1.77513447996677      -1.62718131432458       0.27644839179171
H         2.06598516856089       2.50123009713175       0.58710286913326
H         3.67470024148550      -1.97087697385328       1.87524765383683
H         4.00323684974072       2.32777498553209       2.17178326979795
H         4.82325768872013       0.05514156270878       2.83494793753287
N         0.96392865956685       2.37020437232812       2.99272624796293
S         1.17920984394473       1.76080618818364       4.47521189185259
S        -0.41044135810217       2.96099665421205       2.39599715341040
C         0.39794792671670       0.02976006142885       4.46069889109682
C        -0.75047409797543       4.63102419918614       3.23209075055951
O         2.60668074977544       1.46294654251914       4.57248228448698
O         0.48263469563324       2.45783648670514       5.54445067043464
O        -1.60843309971162       2.17043847682896       2.66446606124358
O        -0.09597539864474       3.33066211715964       1.00932269014708
F         0.94632665496481      -0.69834700279934       5.46293267967508
F         0.65892201244987      -0.61906387975525       3.28480187371474
F        -0.93396373551000       0.06912264430795       4.63326732289910
F        -1.57218419579793       5.34399809079753       2.42241426361103
F         0.39726368675921       5.32517720774186       3.40478844599695
F        -1.35382943540359       4.46624497465676       4.42052937474235
