47
C15H29ClN2 optimized with DFTB in AMS.
N         3.00864669321470       0.82633474453643      -0.15427045960106
N         2.80623241978709      -1.28440456701658       0.23147697886738
C         1.49102630567933       2.73813910341470      -0.43474857024506
C         2.88385231876764       2.27165602375919       0.00440369330730
C         0.93209481643878      -2.56477315702883       1.16513769667910
C         2.44011377869693      -2.53335681289169       0.89159228046873
C         0.38139111005905       2.18064337415149       0.45854306105516
C         0.11697865232974      -2.49037724769132      -0.12850554569159
C        -0.99877332421566       2.52127159117290      -0.11054149591497
C        -1.37920246965008      -2.33898391246100       0.15810436385062
C         2.69118648013702      -0.07210895731751       0.77794582531976
C         3.28416754515496       0.18081456940239      -1.32465991680725
C         3.16982924588807      -1.15188697390262      -1.07902894637772
C        -2.11227776571628       1.95345050190547       0.77321054505450
C        -2.15205349085014      -2.10653012576868      -1.14409582498318
C        -3.49089188606868       2.23933795209617       0.18048553793439
C        -3.64102087594903      -1.89725046855114      -0.87776062109994
H         1.48648427732761       3.83148222944137      -0.40767645909945
H         1.32063144630443       2.41207848644924      -1.46374801547918
H         0.67383752973934      -1.72406946363318       1.81700480327790
H         0.71116577487914      -3.49013708580279       1.70599739553408
H         3.65480417681229       2.74027419567991      -0.61233414431891
H         3.07054500638512       2.51161047282475       1.05562528396654
H         3.00434856216051      -2.60684520326107       1.82648952860824
H         2.73419115891278      -3.35325303510254       0.23192216089337
H         0.48513982406982       2.57726422669676       1.47597858762794
H         0.47527046088979       1.09086795662981       0.50796588999355
H         0.29477246101975      -3.39140910151731      -0.72444434298610
H         0.44596772177244      -1.62675779309979      -0.71256742396675
H        -1.10850985132839       3.60826108561962      -0.19178825785260
H        -1.07751055596547       2.09377165051514      -1.11420985260384
H        -1.53157607732432      -1.48360330546505       0.82678554780711
H        -1.75752931967481      -3.23274211784776       0.66844436363970
H         2.43554571562136       0.14054174603556       1.80093654613452
H         3.51237856732810       0.71011677905143      -2.23179404448610
H         3.27875510259197      -1.99863545105282      -1.73264642163213
H        -1.97946592221518       0.87043836768503       0.87113669336392
H        -2.04712958225037       2.38915360521921       1.77716955378316
H        -2.01721787581106      -2.96888494132920      -1.80544859159199
H        -1.74311999633265      -1.22733344292404      -1.65046050787423
H        -3.65586686937601       3.31456127539393       0.09486552141390
H        -3.57597249750782       1.79561916059112      -0.81204375707214
H        -4.26887436918334       1.81781155464261       0.81798058085247
H        -4.16594103538949      -1.71883156852324      -1.81649346361371
H        -3.79561284399591      -1.03566009393570      -0.22611542003770
H        -4.07596928183170      -2.77610167020188      -0.39772114395935
Cl        0.58586635016863       0.18608893931151      -2.29239529473839
