32
C10H19ClN2 optimized with DFTB in AMS.
N         2.00347415528742      -0.71398960249285       0.17298259704897
N         3.14507842750535       1.12398130726653       0.21482688154492
C        -0.22422433970581      -1.77350158819423       0.16516899104205
C        -0.96878621993501      -0.51288213727995      -0.28406674670571
C         1.21302448475236      -1.81600556309547      -0.35721979744203
C        -2.42388370604289      -0.52734419057773       0.19377953668138
C        -3.16485806679844       0.73838676561843      -0.24850709495852
C         2.28153810565494       0.40186962684281      -0.52076681335002
C         2.84669181519169      -0.78440696682524       1.26233753224720
C        -4.61649219361015       0.72949343013958       0.22715945885395
C         3.56767177308577       0.35858129870131       1.28225944975821
C         3.85193519469756       2.26798921758688      -0.33165799006536
H        -0.21225932670973      -1.82577360882213       1.25851186834434
H        -0.74353153047154      -2.66048045466444      -0.20923694699851
H        -0.94235986689774      -0.44417097806284      -1.37673472720767
H        -0.46350245584051       0.37103746092636       0.11986448173704
H         1.24425895563569      -1.74041622330357      -1.44818549081376
H         1.69355810021424      -2.74995097933288      -0.05450813649734
H        -2.93163452683727      -1.40902378523623      -0.21177115214437
H        -2.44724464559045      -0.60233891361935       1.28649929418050
H        -2.65424553871464       1.61895440601315       0.15627563033246
H        -3.14001094796702       0.81105553345610      -1.34096449998475
H         1.64872319762032       0.81548022836435      -1.28434466368622
H         2.84792393397828      -1.63249124917608       1.92407385011209
H         4.31953227727879       0.70754755726154       1.96795560745009
H        -4.66208340455058       0.67830108083813       1.31591833910988
H        -5.12254718043882       1.63819795912924      -0.09926764989294
H        -5.14779785857703      -0.13045053802612      -0.18282642739043
H         4.40767739849233       1.92861641231293      -1.21032810725107
H         3.13507802521200       3.03539695670657      -0.62418843390240
H         4.53248891174895       2.66284232008905       0.41990103576383
Cl        3.62321417993193      -0.38073823104383      -2.29662492411580
