48
C12H22F6N2O4S2 optimized with DFTB in AMS.
N         1.11729713701847       0.62451873147851       0.16141759190258
C        -0.08330546523306      -0.24260501676907      -0.03404834527828
C         0.83048626083189       1.34746999697628       1.44160134890266
C         2.38127920440391      -0.17354255861685       0.30488720813857
C        -1.26662350941448       0.59199669136572       0.45387462404228
C        -0.66812743674948       1.63127986839022       1.41633060455969
C         1.23890594912224       1.60420767245593      -0.95186263857915
C         2.74725762524235      -0.98120054148171      -0.93641777933947
C         3.95324857163026      -1.87404632880061      -0.61709064593359
C         4.43638326734925      -2.60770370556526      -1.87143078713097
C         5.63771595354790      -3.49772320973810      -1.55946099609319
H         0.04764193061976      -1.13653482373017       0.57999924421425
H        -0.16318763588496      -0.53147883924781      -1.08176363482195
H         1.44831553686966       2.24322027621281       1.49441042447907
H         1.09088246386750       0.67961638940865       2.26523148519075
H         2.24045753384315      -0.83708874219589       1.16264459722548
H         3.17579236817260       0.53925783107509       0.53514107342931
H        -1.99542868581518      -0.04742660060975       0.95457596673871
H        -1.76547033127042       1.08253627811951      -0.38428309588037
H        -0.86695456941755       2.64468962914105       1.06251386793213
H        -1.08602193809578       1.53538684919986       2.41957944731206
H         1.32903704029022       1.07084194165027      -1.89452213132431
H         0.35431722405008       2.23645949802935      -0.97099254596112
H         2.12498596319140       2.21088310582774      -0.78139420115781
H         1.90418368310257      -1.60028395447739      -1.25904461387572
H         3.01546014597632      -0.30612537278999      -1.75222819049865
H         3.67870838136040      -2.59870988483525       0.15733209201592
H         4.76405453875728      -1.25184917004045      -0.22825990669928
H         4.71714397135762      -1.87196556571373      -2.63181875972308
H         3.62197444778983      -3.21837668438114      -2.27739514913770
H         6.45808127036445      -2.90156601925157      -1.15841744887619
H         5.98000558933405      -3.99417548047607      -2.46759247806212
H         5.37007911426470      -4.25999763734662      -0.82611444864956
N         5.69250870918115       3.43009989052274      -0.15959476893895
S         4.72736659605778       3.32605014760358       1.10916872171068
S         5.52658116420329       2.29184091216854      -1.27426245414742
C         5.43453639741257       1.97792982939636       2.22434660171699
C         4.25911286946590       2.96194610656081      -2.49695286854569
O         4.85278134495850       4.53675542224535       1.86851804842001
O         3.37369395541784       2.84312780507485       0.83516737186938
O         4.92059310556129       1.05361804278288      -0.81464366671359
O         6.73856701087331       2.21407909641142      -2.03648767813093
F         5.61038168032825       2.45017659627027       3.44610801302732
F         6.58660502531771       1.52907801627765       1.76486325152159
F         4.57647967711680       0.95828557886002       2.29244508184120
F         3.48969257252350       1.95688452771155      -2.92886470692038
F         4.84390672363515       3.51921607383782      -3.53795894709680
F         3.46117786447016       3.85609029931257      -1.92398790777435
