79
C23H36F18NP optimized with DFTB in AMS.
N         1.51594551863061       1.72296173311381       0.36214985595079
C         0.32729396688897       2.59252381309931       0.06188333103861
C         2.72400193273443       2.59939858932124       0.54267070029248
C         1.29866428507607       0.89828034610321       1.60489598473048
C         1.71893613654595       0.85096908976921      -0.85320615307701
C         0.08639485725549       3.67709519530150       1.10587099367073
C         2.52659931449025       3.68974503172026       1.58747736116612
C         1.32185749426823       4.56247419761346       1.25477177888464
C         0.23224542165684      -0.18585891879624       1.47460835843364
C         2.88135878074508      -0.14706994272941      -0.78962891335358
C        -0.02420535942723      -0.81536008783378       2.84980809945697
C         4.14940655707516       0.34670845262760      -1.49728614049178
C        -1.08359385526408      -1.91700983453329       2.76091471263636
C         5.19492008367425      -0.77116565737938      -1.57238031492300
C        -1.32274118813888      -2.55622688529322       4.13240443183478
C         6.49300377208163      -0.26863262874096      -2.21058416945798
C        -2.37456124356352      -3.66125997471264       4.05611883081635
C         7.56110818321339      -1.36067493620477      -2.22182993158599
H         0.51824790020839       3.05880054777460      -0.90895759914419
H        -0.54623089826266       1.94456442302249      -0.03042509073313
H         3.55187494889681       1.95408762665733       0.83054600245715
H         2.93713070722811       3.04839499777339      -0.43127666456994
H         2.25756243655174       0.44966750286238       1.86438904245034
H         1.03260015087804       1.58697182670431       2.40693203602113
H         0.77732516027829       0.31948140870658      -1.00646336428000
H         1.85799888304209       1.53067340900115      -1.69879804749617
H        -0.76612309105866       4.27049935285659       0.76439853144716
H        -0.18128422199187       3.23532735059592       2.06890157058967
H         2.40864634153176       3.25240762578389       2.57996992869488
H         3.44065899650155       4.28796291873804       1.59936282995775
H         1.15921990653089       5.29099543514754       2.05207815535456
H         1.49790640257983       5.10871641814211       0.32224828848513
H        -0.70389965264321       0.23089058232317       1.09096018359047
H         0.56520657201990      -0.96596807647599       0.78462217473908
H         2.53979982749143      -1.06125390640656      -1.28598817259579
H         3.11882009810547      -0.41451320999423       0.24004301870229
H        -0.35467977062403      -0.04074906718555       3.54894832422236
H         0.90849054516870      -1.23634488288959       3.23295707926975
H         4.57458434228746       1.19699892653375      -0.95762154721040
H         3.89504806246109       0.68340683972214      -2.50873799956905
H        -2.02164413441474      -1.49513854101758       2.38247558160596
H        -0.75257881389087      -2.68396797745346       2.05208019377883
H         5.40440013559896      -1.13519592820269      -0.56292648536861
H         4.79439841816226      -1.60801760974566      -2.15501900668297
H        -0.38213435719193      -2.97329891642893       4.50636584707742
H        -1.65197320910283      -1.78716300197091       4.83907627029426
H         6.29489390373812       0.05982087356602      -3.23710241565072
H         6.86292676246936       0.59314565555489      -1.64651344937784
H        -2.52627902580995      -4.10002830746008       5.04235290666095
H        -2.05410060452238      -4.44778977500281       3.37142756210540
H        -3.32631251887521      -3.26080692798850       3.70358918721255
H         7.79493302184228      -1.67466762350514      -1.20412775589587
H         7.21546190694451      -2.22981375044954      -2.78369313123399
H         8.47249744653685      -0.98516992146663      -2.68745900594965
P         5.31781115157635       1.23122493036688       3.85217143137180
F         5.19498167941572       2.64893524421067       4.71342399859500
F         6.73881148827071       0.78968889516168       4.58800231236487
F         3.82362662003870       1.59730130861240       3.06387639031227
C         4.30831419969383       0.46716873614185       5.34924307963389
C         6.33257293412377       2.31059509906704       2.50404360625096
C         5.36603771058818      -0.39845225664854       2.64028651848697
C         2.83730090241634       0.92794588732188       5.54681011043399
C         7.60355338024788       1.78107460424967       1.76713249798869
C         4.48809395591119      -1.67808844094236       2.68447321938434
F         4.95175690433998       0.76590555392446       6.48688035539999
F         4.26957030132753      -0.87770954267598       5.26112760053607
F         6.75777558994703       3.42301178563669       3.12190281619450
F         5.49950469598049       2.72584717549485       1.51441890925999
F         6.63256162772000      -0.83003149043435       2.52971755675644
F         5.03270419985220       0.14853531070322       1.42970589245133
F         2.35465373462888       0.47503937720922       6.70249346224849
F         2.04767302823069       0.44548983531111       4.57330274100380
F         2.70965915027445       2.25005203539307       5.54066665694744
F         8.26572005250570       2.82459483110726       1.25707825061408
F         8.43034077461483       1.13481262465093       2.57593494963212
F         7.29838313127484       0.98229204965211       0.74425050543814
F         4.90581052472067      -2.57383366368384       3.55931927506692
F         4.48893968756662      -2.26164727025999       1.47653965052260
F         3.20865770992517      -1.37111329763825       2.94944289062381
