47
C13H26F3NO3S optimized with ForceField in AMS.
N        -0.71571642312994       0.31849464959862      -0.15456981772915
C        -1.28122861468386      -0.44099295967415      -1.31591693271651
C        -1.84522957699854       0.72343158486567       0.74469447286706
C         0.27553142635413      -0.50150714932449       0.62649847075526
C        -0.08359399036782       1.55691191794475      -0.72603282375219
C        -2.12597990542064      -1.66196891613342      -0.91754482901280
C        -2.73093763912358      -0.45458930722451       1.20195282501721
C        -3.26411578759201      -1.24196934008110       0.00797443071688
C         1.55326698792176      -0.92427162540758      -0.13626006446881
C         0.65594335141314       2.46665514776606       0.28416115953788
C         2.47474291407680      -1.73718877274852       0.78267601197874
C         1.21799472834248       3.69990703261678      -0.41932298615950
C         3.75188837494807      -2.15438324458013       0.06116773227718
H        -0.48413624430821      -0.76479278000293      -2.01225609528433
H        -1.94173123383076       0.22331096596008      -1.92170269840597
H        -2.50735037491072       1.45861436143509       0.23150998441973
H        -1.46619275737581       1.22121131493038       1.66273090006691
H        -0.18932012060859      -1.43255721050645       1.00292841193674
H         0.57965660430906       0.04367144998318       1.54697291839190
H        -0.86036665042603       2.17991728009224      -1.22785616162941
H         0.63127012695892       1.28807574420287      -1.53598654401205
H        -1.50214117490061      -2.44669077841345      -0.44252672754924
H        -2.56012875830379      -2.11278595422124      -1.83629269958194
H        -3.59157155598206      -0.05547410335306       1.78071683074288
H        -2.17694274736173      -1.12843287963851       1.88802656470387
H        -3.98570622944673      -0.61065421472464      -0.55607521530498
H        -3.80349268246713      -2.14460327264680       0.36702535601024
H         2.11426322584871      -0.03601859867392      -0.49089168917872
H         1.29310869676187      -1.55794938960104      -1.00828666504849
H        -0.03042527300576       2.81402806942063       1.08214721632847
H         1.50775061254292       1.93316708669046       0.75259926195518
H         1.94557867286049      -2.65132673485312       1.13082676638282
H         2.74853781276664      -1.12971987473055       1.67292611202426
H         1.75174103779909       4.33922983680737       0.31483466561560
H         1.93408386027921       3.39791666748191      -1.21343722337746
H         0.39587630894670       4.29239809496187      -0.87458205395523
H         4.31488638467501      -1.25749094637351      -0.27400001281066
H         3.50850242202942      -2.78743028509036      -0.81859226188494
H         4.39357685546639      -2.73853532423256       0.75398501903868
S         2.23383268639775      -3.31325747203349      -5.29969486170548
O         2.91873315531509      -1.99110178832901      -5.67470813464293
O         3.15452365861756      -3.88482173182812      -4.21182571084001
O         2.52504215006001      -4.21180754927423      -6.51016813927280
C         0.48476565592969      -3.17542883387912      -4.83890063937294
F        -0.23455885911874      -2.65681193532973      -5.89788942165603
F         0.36470278106964      -2.33842899532829      -3.74959649532388
F        -0.00927774862747      -4.42355189921992      -4.51402376619104
