37
C11H23NO2 optimized with DFTB in AMS.
N         0.64653124174272      -0.11577108106205      -0.01001573139369
C         0.20426558745993       1.28493313698540      -0.31744858466289
C        -0.45729442694712      -1.07562028947569      -0.31736541165725
C         1.82520369595033      -0.39065461980708      -0.91258290858191
C        -1.08876216858752       1.67568795985589       0.38405209012860
C        -1.74164131327328      -0.73689839585678       0.43105077243075
C        -2.20621218768025       0.67709842983220       0.08477233879745
C         1.07517735199048      -0.21785279979329       1.41205811265752
C         2.62323866841676      -1.64090052135025      -0.55617356467911
C         3.60705131863795      -1.94497120200270      -1.68513372032988
H         0.07327158454935       1.34534100806649      -1.40131827109570
H         1.03383412126059       1.93983291511864      -0.02200064326505
H        -0.11323366446501      -2.07770241490175      -0.05366150944276
H        -0.63274437618980      -1.03417296046859      -1.39628145398597
H         2.47315004339625       0.48971164623051      -0.82999839400463
H         1.43336792738161      -0.45369991158889      -1.93205946112703
H        -1.37031097415754       2.66690377469885       0.01952596739647
H        -0.93706559674716       1.75356120192254       1.46370986586310
H        -1.58882916997292      -0.83117580424943       1.50952696273010
H        -2.50271261614274      -1.46419915098864       0.13609823137403
H        -3.09579914524772       0.92683110896119       0.66817756759456
H        -2.47034956250741       0.72486107192884      -0.97687834189705
H         1.19019359737676      -1.26679815509616       1.67496356504665
H         2.04296348696002       0.29251611395966       1.50525128589411
H         0.33332343916595       0.24063595140216       2.05945587524843
H         3.18746297539851      -1.45313021909525       0.36081853262062
H         1.96770534528828      -2.50397296598984      -0.40081782874975
H         3.07655890243903      -2.15818209234363      -2.61485407260047
H         4.26912671178606      -1.09403417210787      -1.84592027892711
H         4.21089721977858      -2.81270768071507      -1.42154374839777
C         5.13146481725477       2.62796000195689       1.05245705787128
C         3.90454488463818       1.74093754341347       0.74574441858940
O         3.00709789299930       2.25647590560293       0.03990753834567
O         3.90015478027720       0.58521314154342       1.22062614722106
H         5.57076017450889       2.96564220928747       0.11496142002864
H         4.80280957072842       3.50063201494527       1.61548236441520
H         5.86773692763258       2.07237858748112       1.62961803364442
