38
C12H19F3N2O2 optimized with DFTB in AMS.
N         0.39138006664038      -1.10365006133155      -0.45683477255803
N        -1.61561298337458      -0.34097042341841      -0.63239193791517
C         1.70271216256491      -1.44321016745278       0.08931720486405
C         2.70317796047966      -0.31036226422595      -0.16096212733768
C        -2.87609215332118       0.32689063134816      -0.32397981956252
C        -0.61162792668970      -0.54549940887747       0.22007902825066
C         2.41848999106538       0.91660540085131       0.70730697353499
C         0.04061516941552      -1.21268058811670      -1.77224042171472
C        -1.22668829409324      -0.73420750903592      -1.88291935110791
C        -2.73794250693960       1.84903376920488      -0.46256251638941
C         3.34470370291981       2.06987326767368       0.32848269728196
C        -1.99723470990043       2.47656339094368       0.71343321475129
H         1.58147307429612      -1.63853349694606       1.15920880529813
H         2.03382039426611      -2.36037881492748      -0.40526886023506
H         2.65775824537818      -0.02615041231345      -1.21643567155940
H         3.70353116204366      -0.69957013836910       0.05121603021307
H        -3.17037681565909       0.04764351271491       0.69235136842377
H        -3.62262652113479      -0.05170233469334      -1.02687656954574
H        -0.62543251244408      -0.34365342536070       1.27631771582212
H         1.38310778262483       1.23260362352381       0.55062904197498
H         2.54389157443257       0.66029425769641       1.76635239305491
H         0.72128210054096      -1.58068541979023      -2.51912898694283
H        -1.86330143373818      -0.62040524495845      -2.74251804499134
H        -2.20482360580882       2.07633254136547      -1.38829122643125
H        -3.74643288311135       2.26733570644781      -0.53026345821479
H         3.17874797525963       2.35156498351223      -0.71143290679648
H         4.39089141895103       1.78549105973585       0.45277103491330
H         3.13898129814553       2.93418623204939       0.96055501338613
H        -1.00246848842123       2.04329977820368       0.80827748584881
H        -2.54555532247872       2.32823003876585       1.64566223876804
H        -1.88482145495171       3.54555258637575       0.53618163622172
C         0.58942537669901       1.61637907306517      -2.42180592090401
O         0.16661703786255       1.88517066278563      -1.29794976397160
O         1.51147996170825       0.90548370585449      -2.80602141979402
C        -0.32701769421127       2.22412061368391      -3.61261773798930
F        -1.13319844315539       3.21713025103543      -3.19455023532083
F        -1.15735011496490       1.24206107983334      -4.06708525328946
F         0.34753844180413       2.67846567604672      -4.67239937503637
