65
C19H25F18N2P optimized with DFTB in AMS.
N         1.51036413276743       2.41168416970325       1.39068024557473
N        -0.56120705384625       2.70513910171755       0.89048022174153
C         2.94614531476917       2.20630638566811       1.25283145984546
C        -1.76957562484956       2.97272091599785       0.11668921598881
C         3.26687628539602       0.71047013658811       1.30603608427522
C        -2.02459238221319       1.84369053352454      -0.88193714399492
C         2.58857598627482      -0.06144384553757       0.16983288887518
C        -2.13617611124676       0.47862059801060      -0.19573467818731
C         0.66765371188207       2.63447529317968       0.38447448631582
C         0.80788286664947       2.35732622004379       2.56386381090055
C        -0.49990663063529       2.54424076859111       2.24631003907722
C         2.90839791966898      -1.55787542488898       0.24032802621888
C        -2.35781884545632      -0.63988279910965      -1.21880691110831
C         2.18913035537398      -2.32760201223695      -0.86563065324841
C        -2.41748390093468      -2.00720070716825      -0.54073334812032
H         3.44327950953379       2.73923315850955       2.06641040308663
H         3.25505025456577       2.64116174174115       0.29999158249904
H        -1.63134256876028       3.92461379902359      -0.40091461957856
H        -2.59610929216305       3.06995485029190       0.82351488428768
H         2.94708397651441       0.30649353127488       2.27149149898352
H         4.35210791678353       0.59796556682084       1.23452495089959
H        -2.95305744834581       2.07056620979462      -1.41283729425989
H        -1.21449636720260       1.82094461845002      -1.61738379021285
H         2.92076644880447       0.34132494096573      -0.79300050499141
H         1.50313921015106       0.07805059209292       0.23243171503196
H        -2.96557746983585       0.49533449558587       0.51930517699250
H        -1.21625798752146       0.27801127845752       0.36549266052828
H         0.94217175541226       2.77779585477060      -0.64587945245515
H         1.28916631161470       2.20496354903894       3.51371404165908
H        -1.37769926606146       2.59604268797216       2.86576248914925
H         2.60123619659046      -1.94876450099540       1.21618179937292
H         3.98915811218953      -1.70396054338954       0.14550463213821
H        -3.29186150710143      -0.45813621813754      -1.75998571985035
H        -1.54046485179097      -0.63050891707836      -1.94787787635618
H         2.49312615377005      -1.96137165469479      -1.84695208701687
H         1.10828406537647      -2.21099304510499      -0.77116743478395
H         2.43100479388210      -3.38817372935275      -0.79957068799047
H        -3.23538752450310      -2.04193977173770       0.17998657393949
H        -1.48326722798823      -2.21434604450135      -0.01619940255398
H        -2.57715935049237      -2.78607237731565      -1.28613695532607
P         0.85691199910799       6.70256573757672       0.91090381592931
F         1.69100716625350       6.33165272165557       2.31163978377579
F         0.84053635942900       8.32863531710880       1.24491186300499
F         0.87078559954803       5.02756290852611       0.50461932774633
C         2.65754066693918       6.90278347970070       0.14665902359092
C        -0.80181866169435       6.45041146844924       2.01507563229050
C        -0.23493222032148       6.95179407070421      -0.77008876177199
C         3.55928844654483       5.64371044345333       0.02411526012510
C        -2.02311355704875       7.42035627817704       1.93279278247581
C         0.24213392449758       6.74805234237278      -2.23623839023477
F         3.34399345729120       7.75783033788903       0.92130377864906
F         2.60073910130944       7.44855168837686      -1.08262636529401
F        -0.44184731137671       6.48809626849296       3.30927801766176
F        -1.32226196284292       5.20918596818668       1.81607783480667
F        -0.85343136013485       8.14194353650822      -0.72869871648934
F        -1.20472267320601       6.00142095014541      -0.62995877459846
F         4.76851753730484       5.96991649022206      -0.42519368820043
F         3.05616051109092       4.73137508195776      -0.81894312871377
F         3.72037492261408       5.03324760537173       1.20257083693116
F        -2.77314600976061       7.25126705635418       3.02902962961159
F        -1.66006520835097       8.69404947934979       1.88579927090842
F        -2.80371010163761       7.16297066324283       0.88715114284076
F         0.80829477813789       7.82924146856923      -2.74822551848818
F        -0.80349325077705       6.43666118507649      -3.00990834549422
F         1.10086958216093       5.72576028466675      -2.31648644830954
