37
C13H18F3NO2 optimized with DFTB in AMS.
N         2.49846303770147       0.09130574007638      -0.51497908217830
C        -1.30309997446233       0.09857428454025      -0.78165609950598
C         0.07161809237107       0.01986273043762      -0.11125401395840
C        -2.42811490088914      -0.07239951420571       0.24352361804582
C         1.18110479303410       0.19236900810756      -1.14907398570507
C        -3.80376554736779       0.00360273432433      -0.42659087073861
C        -4.92910141782931      -0.16648463895331       0.59240612077922
C         2.97832025135742      -1.14271403552316      -0.26537119120964
C         3.25562446299307       1.19197386898479      -0.33925420755501
C         4.25203229016301      -1.28231225345504       0.29012232832971
C         4.51956608412464       1.09363813172945       0.18344353153038
C         5.03412305570512      -0.16912971993158       0.49660390127145
H        -1.37886229288330      -0.68370600265050      -1.54386101463316
H        -1.40743827687290       1.06627659420310      -1.28359201074406
H         0.16286943115999       0.80244266430032       0.64908543833905
H         0.18532865832120      -0.94802097493888       0.38664130404984
H        -2.31847004023901      -1.03976352836077       0.74561626078218
H        -2.34808601215725       0.71031320872363       1.00588396438768
H         1.11048219092555       1.16664451898811      -1.63669010457492
H         1.14029102774297      -0.59042274638933      -1.91232532699556
H        -3.91020947951170       0.97079785846507      -0.92926461172388
H        -3.88039576637064      -0.77945756852624      -1.18825588531493
H        -4.88149793964105       0.61753970795444       1.34948499047349
H        -5.89636394546356      -0.10900717157632       0.09306260640703
H        -4.85156927965011      -1.13428763910450       1.08973550707299
H         2.27362296551015      -1.96281310544010      -0.28134554574163
H         2.81437411940800       2.13815373541770      -0.62722524921854
H         4.61561258313531      -2.27784766641942       0.50857194739358
H         5.11056348050986       1.98828614665344       0.32627556811558
H         6.03310044449193      -0.26177158021477       0.90502366256880
C         3.87741433827189      -1.60409275574501      -3.26865150481503
O         4.38742963511989      -2.31411273474049      -4.09972432314425
O         3.14373623595115      -1.86125903926275      -2.29035838550184
C         4.18011939013120      -0.01527694044887      -3.42270219229235
F         3.07372871487251       0.73641893492897      -3.17040606518440
F         4.62009985060508       0.34360414473451      -4.62708340166183
F         5.10692660773150       0.39600237581707      -2.52320486694943
