40
C12H25NO2 optimized with DFTB in AMS.
N         0.08793763630205       0.44650773236674      -0.22679778071298
C        -1.07258265314233       0.08545882407084      -1.10836041176468
C         0.00828135445257      -0.36540773873736       1.03533424060830
C         1.33329263942910       0.04939164877958      -0.97766482358064
C        -2.42410124267796       0.27136368888346      -0.42784475931126
C        -1.31886926175412      -0.20649150089417       1.76077871573113
C         0.09851993499693       1.90934222204467       0.11907903027468
C        -2.49834100006304      -0.55636452208795       0.85479760111948
C         2.65289667682297       0.34823796666985      -0.26840109511870
C         0.31180730619453       2.84425740328248      -1.05986503472897
C         3.81079028220278      -0.08551202827557      -1.16430270546933
H        -0.94410316842768      -0.96545665409790      -1.38373927626053
H        -1.00967194211676       0.69102210521617      -2.01456245915963
H         0.83764470074270      -0.05204058332956       1.69851137156116
H         0.15486661010064      -1.41126952618910       0.74993024594769
H         1.29814390516476       0.55956467942856      -1.94459788443104
H         1.25096777650941      -1.02624321713942      -1.16275947581469
H        -3.19440313530804      -0.05585364571051      -1.13179470106747
H        -2.60380647931057       1.32682927318721      -0.20804065092149
H        -1.42893873531925       0.81051024367135       2.14575438224537
H        -1.29894409128107      -0.88196529021623       2.61983592384925
H        -0.85577551154668       2.13867211503507       0.59428020315549
H         0.90008943823441       2.06127387808065       0.86573183705516
H        -3.44083404983294      -0.35507178531271       1.36965894748794
H        -2.46759852944381      -1.62179573575312       0.60310319134742
H         2.74249374818484       1.41312145848142      -0.04699962740992
H         2.70460681095119      -0.18918917612544       0.68085147871080
H         0.23968585772379       3.86173869334146      -0.67508865794196
H         1.29932865547703       2.72444717766601      -1.50161422225259
H        -0.44447179795276       2.72256707355485      -1.83579842524510
H         4.75305143566982       0.11829738230312      -0.65734445236061
H         3.75624259417274      -1.15401933185843      -1.37984735497550
H         3.79849997096095       0.46170996557881      -2.10868135719546
C         3.32087063231578       1.97757827056815       4.13029496684502
C         2.54678304384766       1.51325974445112       2.87481379431060
O         2.30511171839495       2.38409049745991       2.01180571413412
O         2.23470015810495       0.30340765755071       2.82238053112237
H         4.38681073860599       1.93800851900049       3.90637750037807
H         3.05087279844262       3.00290578864233       4.37608393185827
H         3.10904967777182       1.31715263151250       4.96887867818022
