22
C8H11NO2 optimized with ADF in AMS.
N        -0.06348326946436      -0.38257817843403       0.39260068793499
C         0.47250250668923       0.86684893310657       0.55780399962385
C         0.64119630031521      -1.41373809869503      -0.28083856178646
C        -1.17394307813774      -0.79884321022862       1.23383170131455
C         1.56682514011631       1.28283353685181      -0.13280423493806
C         1.72260808320233      -0.91154410611071      -1.13890577630706
C         2.18108391363990       0.36079164027805      -1.02910487127412
H        -0.06504113493737       1.51135017432368       1.25239705376243
H        -0.06619155741686      -2.08462988458605      -0.79254083999777
H        -0.81161160626560      -1.19043721253287       2.19874880626170
H        -1.84222837873773       0.05356058509728       1.41266088462647
H        -1.73724516625543      -1.59369376512665       0.72412791055648
H         1.94107994576643       2.29580508208392      -0.00389087756702
H         2.16596254999135      -1.62368032255598      -1.83461445539378
H         3.01926658654805       0.68884380247779      -1.64795300677050
C         2.45815603791898      -3.29064277175485       2.53933154141993
C         2.00481366060748      -2.11349097549446       1.70745246758961
O         1.18197142649017      -2.52434370503100       0.71938773500499
O         2.33261030875437      -0.95999839780288       1.92637958239203
H         1.58803347960657      -3.80584547013210       2.97239659742669
H         2.98623043134994      -4.01971146566252       1.90807942471303
H         3.11907285471877      -2.93526867877137       3.33857419100800
