60
C18H36F3NO2 optimized with ADF in AMS.
N         0.14048691877541      -0.05969964681140       0.08702338423356
C         1.12234603819622      -1.04913889262806       0.71321986344997
C        -0.66495481795226       0.59075155504269       1.21031806308168
C        -0.77056673091958      -0.83243902385375      -0.85448482290624
C         0.86551499757368       1.02093923263109      -0.68603574204160
C         2.21342834319430      -0.43632173710825       1.57177178747845
C        -1.85302282393931       1.42986540614165       0.77259291192516
C        -1.70803108447570      -1.82306703130648      -0.18631210117102
C         1.78019517898250       0.54046299568030      -1.80115969776301
C         2.96488002189611      -1.56001114831111       2.29455002319249
C        -2.61969562577001       1.90050354927038       2.01392225621191
C        -2.50330535080089      -2.58940798039256      -1.24668357702743
C         2.59729409734311       1.70592233610259      -2.36547618552720
C         4.13102974911665      -1.03002122963542       3.12268174632470
C        -3.81428341670514       2.77848474978131       1.65394352840590
C        -3.49082852784316      -3.57166026949970      -0.61957307986725
C         3.50596676381101       1.26644376379848      -3.51029833680875
H         1.55178278571050      -1.62443770729138      -0.11997546318879
H         0.50739544494646      -1.70557967422756       1.34816934644005
H         0.05207750377433       1.21869193566364       1.75770957153413
H        -0.95508943515805      -0.23639721432505       1.88545828156803
H        -0.10252610368643      -1.35311493447560      -1.55614269982994
H        -1.33514350074492      -0.07883476469607      -1.42608146018338
H         1.44180903910350       1.58805205840531       0.05997369225805
H         0.08973768545837       1.68807757365315      -1.08853743204892
H         1.77245089606415       0.21646832478120       2.34189583677905
H         2.92525849766326       0.16267832175472       0.97492104358934
H        -2.54521275843327       0.84590544962255       0.14397515989188
H        -1.54023106632737       2.31215906793666       0.18594282332532
H        -2.40719019446268      -1.30839550130919       0.48858629341062
H        -1.15586180929029      -2.52818685253985       0.45263649115730
H         1.19569516924815       0.08251570300981      -2.61637629148387
H         2.47783936391093      -0.22640225604275      -1.42670831750817
H         3.33535905934638      -2.29314909191476       1.55447992009005
H         2.24181934010629      -2.08500770968174       2.94219037428107
H        -1.93508774535373       2.45413233196503       2.68088232966560
H        -2.95618654372769       1.01511625346276       2.58038834712807
H        -1.80467171366879      -3.13534886921008      -1.90759530650673
H        -3.04855492500238      -1.87342585922949      -1.89022296146507
H         3.20642720827612       2.14571252596482      -1.55549969712878
H         1.91668645475304       2.50346562184183      -2.71424188371756
H         3.77617306549314      -0.32140603249227       3.88780430592276
H         4.86846553332491      -0.50873791720364       2.49042635829840
H         4.65073323452698      -1.84890663495753       3.64223905041040
H        -4.52202647284820       2.23645671177875       1.00637986944923
H        -3.49458827509329       3.68728911449162       1.11881427011593
H        -4.35926265027472       3.09202264302793       2.55641390556412
H        -4.20128032213907      -3.04880261196098       0.03863396692951
H        -2.96669117878875      -4.31081476966473       0.00261490459083
H        -4.06138459879714      -4.10706759368826      -1.39290047252967
H         2.91733266026523       0.86872792144406      -4.35182892184821
H         4.19909260801562       0.47579625117226      -3.18111375907448
H         4.10767612957196       2.10676431311783      -3.88629611750756
C        -1.32651159530443      -2.31701111095499       3.86429639449963
O        -1.25273818616661      -2.25317857058285       5.09521589091277
O        -0.57799786619788      -1.84852199726308       2.94925622611752
C        -2.56618901924489      -3.08623476857447       3.28033369116210
F        -3.42035516954173      -2.21593437328062       2.61329998269744
F        -3.32317243673886      -3.72340426785189       4.20758347649651
F        -2.19562320385109      -4.04014585657682       2.35586849084407
