30
C8H13F3N2O3S optimized with DFTB in AMS.
N         0.26731319180300      -0.82689767381608      -0.29512387440507
N        -1.79895279247074      -0.73622399064870       0.30028835521437
C         1.64840314374243      -0.44979237068660      -0.58529794224330
C         2.49013893351214      -0.38085825374063       0.69803839445073
C        -0.71054918757668      -0.00253199821171       0.07136800649353
C        -0.19343397806645      -2.11523731700995      -0.25093997931492
C        -1.49865198329226      -2.05636010531552       0.12106895484566
C         2.33695103967192       0.95080887043474       1.42561956342466
C        -3.05868204574284      -0.20766800380735       0.79688788789940
H         1.63484695053388       0.51509894571400      -1.10074989893350
H         2.04946100854439      -1.20700926264205      -1.26400851618637
H         2.19683423307523      -1.19988397642030       1.35926611154546
H         3.53626313579024      -0.52648950239362       0.41228141930076
H        -0.64371164086175       1.06672541761646       0.16230203799246
H         0.43883437604901      -2.95544494920769      -0.47694991092972
H        -2.22248242984770      -2.83330177306901       0.29192122593694
H         1.30332664866268       1.10774808638756       1.72845505963905
H         2.64741038967110       1.77877960797536       0.78570908123121
H         2.95736501371315       0.94634010873188       2.32091878741550
H        -3.55660399689462       0.35858832182045       0.00899628080552
H        -3.68475044427137      -1.03817869828775       1.11469237162658
H        -2.84484750734613       0.44145999325854       1.64713604648849
S        -0.33250074116180      -0.53312195859282       3.36586099436931
O        -0.80863857493265       0.61977873977559       2.59847903671418
O         0.37776548656049      -0.20843640648797       4.57197342951470
O         0.26326063483747      -1.56895062808067       2.53676454687053
C        -1.92848537637262      -1.31707976279804       3.92252746328131
F        -2.39925072222488      -2.11529490289185       2.94527654402337
F        -2.86448376458228      -0.39517172505700       4.14692296878768
F        -1.79114341722234      -2.05133363544924       5.01341578664149
