55
C17H35NO2 optimized with ADF in AMS.
N        -0.89666881305632       0.54116070430314      -0.32194122218490
C        -1.43898755559673       1.79461690246084       0.32593235607704
C        -1.59110938903954       0.33825633844818      -1.66142911031543
C         0.58345321024722       0.70695535631333      -0.62751011308881
C        -1.13287656407833      -0.64332473347283       0.60587659738769
C        -2.95576566882971       1.79578720639395       0.46880196690214
C        -3.09873938231353       0.26107996967192      -1.52121156324972
C        -3.65741634560065       1.52351442056103      -0.86200153589042
C         1.47575617929660       1.06268855099700       0.54797769830458
C        -0.62710922216566      -1.99218942023606       0.09614287818232
C         2.93707875750072       0.95797682973873       0.09397523705845
C         0.58311698477486      -2.51076705007622       0.87247770142345
C         3.92515035625048       1.16635057520406       1.23611907634305
C         1.02708933704100      -3.88762071784141       0.39065328587785
C         5.37419334105488       1.00422077350955       0.78328320656101
C         2.23294232261295      -4.40915571021537       1.16621361846970
H        -1.11091025632845       2.62623416121688      -0.31851865845975
H        -0.94484445832890       1.89615548358461       1.30204820896313
H        -1.11330224941274      -0.53801589155889      -2.14710955859745
H        -1.31793703692781       1.22654575112075      -2.25499517193106
H         0.62996990979528       1.49271681644257      -1.39972351943095
H         0.93558306130973      -0.24402752314082      -1.09149615835970
H        -2.21277291992894      -0.66685787804159       0.78884607860596
H        -0.65037618796457      -0.36739559474659       1.55592302211185
H        -3.24393833574398       2.78396802162186       0.86423625284121
H        -3.26981701930837       1.05770909799022       1.22568559736807
H        -3.39526731450130      -0.64025373151119      -0.95933781891082
H        -3.51402841851625       0.13773621705795      -2.53447709613656
H        -3.49597714083712       2.38310994999108      -1.53867594258336
H        -4.74427508756209       1.43684205159652      -0.70423006543187
H         1.27877613172658       2.07722041224042       0.93984540432298
H         1.32413052162557       0.35441631278764       1.38001594761192
H        -1.45239670311082      -2.72166902958444       0.17751211798635
H        -0.36141359756315      -1.94584331103165      -0.97816199195156
H         3.12980928150171       1.70231332173899      -0.70124250400519
H         3.08871035839895      -0.03009546503471      -0.37433597254335
H         1.42668148438839      -1.81558184192668       0.72830880858915
H         0.35239727862855      -2.54758738895631       1.95615138595358
H         3.70587855579559       0.43631076442417       2.03666473469410
H         3.77929237148174       2.16889321279993       1.67969677124180
H         1.28254567995904      -3.80094423214464      -0.67822694375939
H         0.18492384591818      -4.59931420637232       0.47617645340491
H         6.07703150108916       1.14963910460044       1.61738298930397
H         5.53895907266411      -0.00205695681577       0.36702426138214
H         5.62384488167672       1.73372702898880      -0.00406976598496
H         2.54414637610701      -5.40267290117403       0.80901928531743
H         3.08819818266376      -3.72482547232189       1.04540772195342
H         2.01041144423829      -4.49063267540245       2.24350566119264
C         2.25559011782781      -2.52015737618895      -3.98794712465087
C         1.42337100781173      -1.90233015019620      -2.85777606081556
O         0.17707087757627      -1.74803728719515      -3.05737343843672
O         2.05571374094525      -1.60959426844926      -1.79541496643699
H         2.59301129586354      -3.52266289645217      -3.67985836613619
H         1.68077737066229      -2.60591773561322      -4.91937633286808
H         3.16316206408099      -1.92026092240375      -4.15433444337226
