38
C10H19F6N2P optimized with DFTB in AMS.
N         1.31003324179217      -1.42326015903979      -0.29705743443982
N         2.23496604415871       0.08046365132965      -1.52722523995387
C        -0.69043815225566      -2.10375314125253       0.97994349775572
C        -1.58081359087431      -1.07577190129086       0.27747234889633
C         0.47054555858747      -2.55631256024189       0.08973684423649
C        -2.78375354717998      -0.68233699992823       1.13744915947001
C        -3.63879489912126       0.35914500878262       0.40770709269636
C         1.52550888008686      -1.04312766520428      -1.55247097379188
C         1.89128306287689      -0.51756384149052       0.55144208583510
C        -4.88160692865877       0.72791424170021       1.21491813238843
C         2.46946646693072       0.43507758619652      -0.22684276072912
C         2.51097489943796       0.89309157048865      -2.70120830458173
H        -0.29756784013257      -1.69084814998951       1.91468380869767
H        -1.27267921212054      -2.99655051959839       1.22758249267424
H        -1.93529377215905      -1.49224643570481      -0.66826883304931
H        -0.99115226425670      -0.18393129350108       0.04794777299433
H         0.09110647643986      -2.99937266792299      -0.83467899720015
H         1.09681847583149      -3.28487777703968       0.61368649815720
H        -3.38714399698612      -1.57105748556760       1.35340288074479
H        -2.43771816397828      -0.27321886168248       2.09417325669680
H        -3.03908588089607       1.25762104731038       0.22963543426211
H        -3.93876212023248      -0.03806973566023      -0.56677032492685
H         1.17487378226709      -1.54620867452158      -2.43670206782337
H         1.84946254244539      -0.62097239775341       1.62124964140130
H         3.02070871257151       1.32100453374192       0.03566183763536
H        -4.60147419016202       1.13986343112744       2.18614536858371
H        -5.46713936745725       1.47419255876592       0.67756021121688
H        -5.50698076644193      -0.15110801137719       1.37908262036120
H         3.39185488437658       1.50546497064752      -2.51873968033392
H         2.66763673697920       0.23739706071812      -3.55512957157227
H         1.64021566259836       1.52343236707758      -2.89013720051906
P        -1.14420623645402      -0.28902816984028      -3.50632042080513
F        -0.45530646100877       0.46131056784529      -2.16470112351824
F         0.40634578927782      -0.43824734706979      -4.13441799019413
F        -0.90878496455559      -1.76422365288622      -2.73191275131745
F        -1.75498676209571      -1.05994146488104      -4.79492269220177
F        -2.61362411405947      -0.16489763124861      -2.80613177835360
F        -1.29900580867156       1.16292836506114      -4.22387086329238
