36
C10H17F3N2O3S optimized with ADF in AMS.
N         1.14529859108057       0.59778545643680       0.43903010412717
N        -0.78946013460642       0.68904970312680      -0.54509351445461
C         2.46091710660945       0.09928082835940       0.87788090575787
C        -2.03680688153824       0.27834374801305      -1.19940985160962
C         0.20303027907761      -0.13045705767634      -0.17478124381585
C         3.43803532095113      -0.08944271506960      -0.28030943094575
C        -3.21296865478515       0.27960119293727      -0.22936454217289
C         0.74899528277852       1.91562502052079       0.44266685714286
C        -0.46870556395927       1.97373657243154      -0.16772334643551
C         3.08106306694002      -1.24555214151578      -1.20515635844524
C        -3.03862355592613      -0.70178959953132       0.92472654527213
H         2.28587829345139      -0.84522564836298       1.41899660112182
H         2.83437427984670       0.83802388267936       1.60264043143771
H        -1.86160685023875      -0.72389118204075      -1.61547856815476
H        -2.19140865354771       0.95887142627684      -2.04800327943200
H         0.23551615812002      -1.19812029476731      -0.34062995908018
H         3.47952660560124       0.84370859977914      -0.86496118369181
H         4.42932524594113      -0.25646097590844       0.17739260553613
H        -3.36731971379813       1.30152751421487       0.15780356418267
H        -4.11280104581500       0.02964966489760      -0.81680314991066
H         1.39990508749801       2.70489763200229       0.79545810321417
H        -1.08740756509977       2.82083107901855      -0.43388473090412
H         2.15978348398001      -1.03515065459411      -1.76727519478313
H         2.98253093744219      -2.19524014740007      -0.65060368052398
H         3.85688170301998      -1.36432652004265      -1.97449672572718
H        -2.16516867434149      -0.44029216026710       1.54250668373683
H        -2.90079281845968      -1.72997313319148       0.55267090767304
H        -3.92088575782825      -0.69884843760074       1.58075988657099
S         2.04197032310743       1.72621031009708      -3.48044733389049
O         2.90292548437485       0.57070014461793      -3.76855439608889
O         2.19124167001776       2.90843876610059      -4.32971706099955
O         1.84191150829713       2.00120961310901      -2.03731499353731
C         0.33744503140441       1.08664398104827      -3.96784899075462
F         0.04898899686022      -0.11925101414079      -3.35379428996499
F         0.20859472936974       0.88658300399563      -5.29967592968186
F        -0.66125556282553       1.95587499644664      -3.58932302086839
