49
C13H21F6N3O4S2 optimized with DFTB in AMS.
N         1.28972377373824      -1.52192524745759       1.14272226279615
N         2.53294000867506      -1.63874086267905      -0.60798847468980
C         0.81704322042216      -1.19908067438001       2.48611028328800
C         3.65571058047110      -1.46551761586062      -1.52500327184638
C        -0.01876736332020       0.08313551978965       2.46951884549253
C         3.39573952829309      -0.29440114403463      -2.47662084249989
C         2.47158118838693      -1.17593736846867       0.63844489668092
C         0.57289719631186      -2.19821091029836       0.19341840200177
C         1.35849234248573      -2.27244275608508      -0.91313272611758
C         0.81232293042845       1.30706742535390       2.07505560928252
C         3.35144388326312       1.04604635880723      -1.73816879333551
C        -0.01761180462949       2.58655341904147       2.14131922846051
C         3.12956733045951       2.20614750206692      -2.70499571887945
H         0.21894949777951      -2.04295522769926       2.83895515621850
H         1.69425065182922      -1.08108458379844       3.12582498632000
H         4.55076536105602      -1.28768171626536      -0.92588871504135
H         3.77215911594296      -2.39617374086010      -2.08659517367549
H        -0.42288294001212       0.22086062522823       3.47658754082625
H        -0.86098853155799      -0.04077957922169       1.78066276259140
H         2.45560238179511      -0.46354989741574      -3.01196246512092
H         4.20577741509775      -0.28294664556722      -3.21123461432553
H         3.25246535550229      -0.64338032856239       1.15780717108381
H        -0.41700442477211      -2.57473334968767       0.38298917376232
H         1.18467878371508      -2.72612325257293      -1.87312364672456
H         1.67211623387766       1.39180425124015       2.74523921374329
H         1.19354907417412       1.17472528149350       1.05709460762385
H         2.54388901190906       1.02860198505085      -0.99894273180471
H         4.29295944552739       1.19076537929022      -1.20126869810555
H        -0.38506893119707       2.75227221946928       3.15469670829694
H        -0.87265406676637       2.52701050792150       1.46591406346433
H         0.59702571464895       3.43826666831504       1.85104021235513
H         2.18227928925814       2.09102924906807      -3.23411678763977
H         3.93515777232541       2.25170479923983      -3.43873085303319
H         3.10884460161989       3.14573569939878      -2.15346076348702
N         6.14489971085654       0.37570916579232       3.13849914576565
S         5.98553707421853       0.83180029181330       1.61186946840515
S         4.89049882815975      -0.39188697263904       3.76353309487928
C         4.87085515024847       2.35152799473543       1.60626184467368
C         5.04137842732206      -2.20160877214915       3.23805426551196
O         7.25703168563854       1.30950755197261       1.15235819970064
O         5.26488018081751      -0.10742022878228       0.75565175606736
O         3.59472756645699       0.00122564325949       3.21938712196108
O         5.03612532316281      -0.42351298800005       5.18970145866358
F         5.35387355141986       3.25641430154672       0.77061044904959
F         4.77215262469741       2.88410223494685       2.80901003718892
F         3.65055077308576       2.01463255821737       1.18663699308695
F         5.17151403582195      -2.97989192917346       4.29609688420101
F         6.06995665638813      -2.39404780709132       2.43229291971733
F         3.92827845986718      -2.56527078010859       2.58775883126633
