57
C15H28F6N2O4S2 optimized with DFTB in AMS.
N        -1.71637370871143       0.26301663950046      -0.58709572777209
C        -2.69759643498696       0.72398725414415      -1.63053747667763
C        -1.90346192771367      -1.21174788989395      -0.35627453818571
C        -0.34660727938595       0.50615602900387      -1.17292968890064
C        -1.88357642432591       0.98679892326443       0.71692270587036
C        -4.14243970889803       0.39212621255877      -1.29137082067274
C        -3.34084384879332      -1.59748194141553      -0.02911157113616
C        -4.29630149472685      -1.11742735378176      -1.11848551962052
C         0.83233754531938      -0.01618260683360      -0.36093417544008
C        -1.64282208489545       2.48842952068039       0.66217723679246
C         2.11621558657770       0.28247045529796      -1.14750095726603
C         3.34461741000797      -0.29022226076622      -0.43689461350901
C         4.61916123439978      -0.01409188260619      -1.24065188771711
C         5.85132571610641      -0.59049362336162      -0.54579543635868
H        -2.42543832298588       0.21112639557528      -2.55540691108144
H        -2.55630923690637       1.79614441047093      -1.77239193410972
H        -1.24137598961454      -1.50507730621690       0.45993040048437
H        -1.58794773098591      -1.71688062000503      -1.26867451902256
H        -0.25555080382860       1.58116899576335      -1.33751204980100
H        -0.33865267546928       0.01943725547742      -2.14817493015971
H        -2.89928820900736       0.79607402742709       1.06754153731692
H        -1.18765728264321       0.52822003017379       1.42353000595506
H        -4.75714013489153       0.73597087709943      -2.12705471365277
H        -4.47433745361472       0.91939601835122      -0.39206806432510
H        -3.64343999065792      -1.19802887589425       0.94383142668278
H        -3.37014735587215      -2.68816432788116       0.03687248906979
H        -5.32547995665238      -1.36306359283254      -0.84778686190167
H        -4.05518930112298      -1.61662309068184      -2.06249217025029
H         0.87895610842257       0.45374434425926       0.62597401746554
H         0.74976121938780      -1.09753452609121      -0.22928484907035
H        -0.60817497265222       2.72532691591542       0.42262606967541
H        -2.29586360910370       2.97900771703050      -0.05691367751334
H        -1.86253274472136       2.89086186777435       1.65109376463377
H         2.22800217024783       1.36511344999052      -1.26908962135623
H         2.03043970007584      -0.16146776067930      -2.14451166982064
H         3.21904027701447      -1.37086652072685      -0.31124550642257
H         3.43363437979472       0.15476913179929       0.56077930244030
H         4.52167512534861      -0.45774028672622      -2.23660549500322
H         4.74330119159744       1.06683081839423      -1.36630710034299
H         5.75475171676009      -1.67097249936340      -0.43081115374715
H         6.74399116942968      -0.38266276806952      -1.13597878730896
H         5.97709409122712      -0.14628113068455       0.44290187777561
N         0.56624933559856      -0.76092526235922      -4.10171397728165
S         0.15736732595791      -0.00325414108380      -5.46560595585153
S        -0.38015245485935      -1.96164378961438      -3.63136341962061
C        -1.12783134557744       1.28071121712814      -4.97986524209584
C        -0.26780487404475      -3.40850038750380      -4.82942956578816
O         1.28201834993600       0.80062352634451      -5.84871361208010
O        -0.49416381345864      -0.82878995671775      -6.44608445893184
O        -1.80082353264856      -1.63413430625436      -3.56744620613776
O         0.19986846164500      -2.46143301148929      -2.39983276133063
F        -1.12624095753530       2.28039683636110      -5.84038502474378
F        -0.82867882517636       1.77744193077178      -3.76603202944848
F        -2.35201885106448       0.78034252518959      -4.90827289508215
F        -0.26166762971287      -4.52536378436060      -4.11808983792194
F         0.84886781756010      -3.33739740500172      -5.52604514910618
F        -1.30374218916953      -3.42476391875068      -5.63926573469563
