55
C15H25F6N3O4S2 optimized with ADF in AMS.
N         2.49013189027807       0.94324574108436      -0.17927938481684
N         0.71135721993763       1.06540284867088      -1.40886301907791
C         3.67590965411276       0.35030311645297       0.45768349854661
C        -0.33491540118197       0.67610935074619      -2.37073348842632
C         3.27060114605681      -0.51241340808964       1.65314729560874
C        -0.90029763096969      -0.69961747638661      -2.03283439595022
C         2.24956515626240      -1.58967805863059       1.29358507893769
C        -1.48443701636082      -0.78183771658827      -0.62485287362039
C         1.82360351941640       0.35385711624943      -1.17904988010743
C         1.78362541948032       2.04582698625799       0.25233371478056
C         0.66337166428983       2.12538864298393      -0.52607227805157
C         2.01065115828341      -2.59877021693446       2.41527064210084
C        -1.98150043274367      -2.18415185054278      -0.27876742519340
C         1.02457208174782      -3.69049811299829       2.00378703206248
C        -2.56164204718765      -2.26342169579446       1.13043663060034
H         4.34476701519007       1.17596140520409       0.74185401812633
H         4.17490183058168      -0.24256560733824      -0.32291148687206
H         0.10890064203188       0.69886132852954      -3.37690395717096
H        -1.10958408082909       1.45531585994453      -2.31121192886910
H         2.88585677266537       0.12787567492480       2.46797763677745
H         4.19558092635128      -0.98442628553812       2.02911674264946
H        -1.67637769570719      -0.92905470579586      -2.78407640957881
H        -0.11462173368044      -1.46540371151280      -2.15331210884218
H         2.58262848895792      -2.12488707542141       0.39131403978918
H         1.28343404789318      -1.11968734072756       1.03372390863287
H        -2.31016451568734      -0.05178589793841      -0.51455925083105
H        -0.71299558404898      -0.49379715602326       0.11322001624326
H         2.15951935659256      -0.56482074894227      -1.68022957565906
H         2.13827904863283       2.67792817148971       1.05701502192527
H        -0.14820834568419       2.84236474595330      -0.53559739565709
H         1.64101456902586      -2.07081913549893       3.31415932954277
H         2.97522032220328      -3.05892023388670       2.69650720038290
H        -2.74629732054556      -2.49226902075445      -1.01495267691154
H        -1.14193174829606      -2.89243810509767      -0.38859248107745
H         1.39577165490542      -4.24332244234394       1.12778254403793
H         0.05232312492732      -3.25679222136506       1.72742495024380
H         0.85448770280345      -4.40706515222859       2.82186610254006
H        -3.43149811856838      -1.59486751693909       1.24093221215890
H        -1.81418251756136      -1.96328865911755       1.88309029972256
H        -2.88723738321101      -3.28626066797546       1.37327425893106
N         3.24259020739863      -2.00915732121956      -2.28937350942833
S         4.37034117238875      -1.44165194859496      -3.30643363889858
S         2.55058830293192      -3.47040881291370      -2.38979462788037
C         3.33341013111979      -0.73878047327607      -4.72763336734516
C         3.70438000210582      -4.58757286846636      -1.38804026573406
O         4.89908526148392      -0.24042718461487      -2.66225265474065
O         5.24656878878133      -2.42056495550156      -3.92285259860325
O         2.50457882960552      -4.08382121091710      -3.70602451870357
O         1.34771701362122      -3.38468444509891      -1.56014721113776
F         4.13405320639157      -0.08203112362431      -5.59429017933400
F         2.41348787695380       0.15830102803681      -4.24587850800505
F         2.66425661541175      -1.70138478216274      -5.38782844963905
F         3.09251461810480      -5.78096536310751      -1.19945497647383
F         3.97629627724256      -4.05359668828282      -0.16659244690291
F         4.86841171269445      -4.78789373143757      -2.03328853550110
