49
C15H31NO2 optimized with DFTB in AMS.
N        -1.32132928062227       0.08057105241168      -0.00433548000404
C        -2.29732872172040       0.25153934977586      -1.13412848532351
C        -1.37264604575029      -1.34838487648893       0.46949768586583
C         0.03981929525804       0.33015407458737      -0.60144689144007
C        -1.59942006446495       0.99852521039317       1.14607087935478
C        -3.71519420565403      -0.16467619283745      -0.77218022508266
C        -2.77552125703990      -1.82229632949907       0.82165526527332
C        -3.72167812941064      -1.63492536345924      -0.36100497859499
C         1.20890246023877       0.26839375346429       0.37722730208845
C        -1.54528957750429       2.48214173308441       0.81031047542499
C         2.49460014014604       0.03176246355735      -0.42642485842956
C         3.71684573197215      -0.04056876131236       0.49160551176936
C         4.99462403096153      -0.29588656441533      -0.31384478819003
C         6.21995053478015      -0.37999146280445       0.59470167370689
H        -1.93483517938196      -0.40216554050800      -1.93819249310053
H        -2.25655096348770       1.29160940340063      -1.46174166600738
H        -0.71889121242836      -1.43503972756567       1.33885675199878
H        -0.96543485930208      -1.95168299178204      -0.34798630795832
H         0.00841699821284       1.30145939600497      -1.10003395421359
H         0.17251904809629      -0.45609250134349      -1.35408074023582
H        -2.58942278678861       0.75100020671382       1.53361994526006
H        -0.86315524402841       0.76814610028158       1.91991933145634
H        -4.33147009407048      -0.02343667785222      -1.66397517278251
H        -4.12846746903931       0.46424970665690       0.02349967563586
H        -3.16013507936748      -1.30051070091822       1.70503585784038
H        -2.69881966341388      -2.88383108007810       1.07168818563610
H        -4.73210934647563      -1.94974786559970      -0.09005191450949
H        -3.37110957615315      -2.24249832317504      -1.20135367657472
H         1.28834522882031       1.19679530824201       0.95267729522595
H         1.08511812513664      -0.55722144262556       1.08147864253850
H        -0.56721527357568       2.77711936935546       0.43533480902098
H        -2.30355019216589       2.75804316288277       0.07971658275896
H        -1.73975883973933       3.03657188407268       1.72852878229346
H         2.62577047951288       0.84026198051149      -1.15335490938881
H         2.38913582035020      -0.90764777596145      -0.97946217633672
H         3.57769486571268      -0.84721002595400       1.21969754113111
H         3.81590334289172       0.89827276716206       1.04910224808711
H         4.89017211487818      -1.23212136863362      -0.87157995853290
H         5.13484826653188       0.51215936203035      -1.04002020650268
H         6.10841597324791      -1.19381315809475       1.31272221176561
H         7.11529156281220      -0.56258754169542      -0.00016581155632
H         6.35339339439642       0.55236232180199       1.14582068541275
C         0.08053996827292      -3.70935989163451      -3.62435848290496
C        -0.28976223761953      -2.68748618541777      -2.52769199780029
O        -1.46758981924825      -2.26356235300822      -2.53231169492625
O         0.60764122547431      -2.36181900399283      -1.71965935014641
H        -0.52993250152336      -4.60211492004535      -3.49459380105119
H        -0.13890443149072      -3.27922719045835      -4.60053959383308
H         1.13477456346255      -3.97120937872971      -3.56136453371876
