44
C12H26BF4N optimized with DFTB in AMS.
N        -1.45755115126727      -0.42247938532943      -0.13587758220759
C        -1.77996925674989       0.98473041147750       0.25445052014568
C        -2.38201421530742      -1.37204037433988       0.57423604783927
C        -0.06188346559669      -0.77015623880208       0.32369162375240
C        -3.24356275732014       1.34391249569781       0.02300814148858
C        -3.85265587921398      -1.05455684547627       0.35137633995452
C        -4.16608055861551       0.38100790590903       0.76880018493999
C        -1.55143990711639      -0.61461462505969      -1.60561433426932
C         1.06707853408272       0.07188798731237      -0.25509633934816
C         2.38338482927628      -0.45913068794512       0.33353846977717
C         3.58289961083164       0.33856948038002      -0.18003967431006
C         4.88985329549112      -0.20285174920715       0.40815831883637
C         6.09808072799726       0.58451648096615      -0.09602123975633
H        -1.13190586589843       1.64762064361945      -0.32201553818775
H        -1.53259675067954       1.07955234688540       1.31508539511679
H        -2.13736050515777      -1.31443711880742       1.63656949548638
H        -2.13581874265872      -2.37857842642137       0.23233250745962
H        -0.05925627091466      -0.68772791328239       1.41228445796772
H         0.09442771040184      -1.82008442078531       0.06877768752285
H        -3.39333245052230       2.36361265260698       0.38743329638506
H        -3.47452300880601       1.33561455834292      -1.04606198645178
H        -4.13574721509083      -1.21263122947516      -0.69339582240420
H        -4.43175995673930      -1.75323975503651       0.96015276020103
H        -4.01648100614560       0.49172272626258       1.84729751865277
H        -5.20806202965368       0.61825206309725       0.54215660962621
H        -0.90893318038681       0.10817416301835      -2.10323818123283
H        -1.22397464246229      -1.62571384306750      -1.83977807614210
H        -2.57711058934590      -0.47482827953859      -1.93672998720210
H         1.09987593157197      -0.00519720533977      -1.34644676297958
H         0.94825513137296       1.12780651068104       0.00875304154864
H         2.33461461730920      -0.40265596628958       1.42482644420967
H         2.49394042399611      -1.51379919168359       0.06563435056055
H         3.46825195817799       1.39437152781301       0.09263003394542
H         3.62208593195409       0.28044186227204      -1.27412256899751
H         5.00158448512633      -1.25672550438321       0.13380146063073
H         4.84729248002408      -0.14471710499128       1.50056627617218
H         6.16961457039995       0.52240703695493      -1.18312835935443
H         6.01578992063374       1.63545001120295       0.18610949655325
H         7.01411674056977       0.18031740736960       0.33543551008939
B         0.58910854419443      -3.20967411892651       2.12147504924321
F         0.86963040034132      -4.26726026836838       2.93849546631290
F        -0.81448375192945      -3.12573637251657       1.85256461790539
F         1.23707240464423      -3.31953489445504       0.87098703737301
F         0.96621213668152      -1.97761416644156       2.70141831334698
