58
C18H37NO2 optimized with DFTB in AMS.
N         0.03810564052911       2.55661600492064      -1.40332229310444
C        -0.58011894608939       2.80285473532236      -2.74228705912296
C         0.62945161597866       3.88569683780426      -1.03811879036502
C        -1.00767481493147       2.20657088494232      -0.38008386951699
C         1.10486102514746       1.50840103516273      -1.51506491935577
C        -1.16310151146393       4.21209313203147      -2.66307084869612
C        -0.36187304027229       4.92120514116885      -1.55778627477822
C        -1.68729670890662       0.85652105532072      -0.57764517471282
C         1.79216915063032       1.19504683367556      -0.18958955152540
C        -2.58896150725463       0.59638234261392       0.63635685066432
C         2.95389742244090       0.22518662714445      -0.41702042101468
C        -3.26526513578614      -0.77271454047239       0.53873835302335
C         3.62680457451787      -0.11189238522327       0.91746372547093
C        -4.14786340399437      -1.03668443650092       1.76274814381448
C         4.77864505839845      -1.10274100065493       0.72773438565636
C        -4.81994309751825      -2.40630740907571       1.68190861293941
C         5.44808946989748      -1.43652380994313       2.06009427182181
H         0.21394515750099       2.75103489461126      -3.49134623358026
H        -1.32282403330031       2.03451104715113      -2.95487051183429
H         0.77369510775653       3.91934878296644       0.04960228573193
H         1.59246379899484       3.97436007956392      -1.54575164938089
H        -0.50909027116029       2.21344656492375       0.59607121492380
H        -1.75055969152516       3.00594381350203      -0.39936683176344
H         0.63881756255804       0.61342324054392      -1.93574551657114
H         1.83437977751833       1.88298062388787      -2.24054048148425
H        -1.05819926051566       4.71618374776241      -3.62542089498937
H        -2.22528101853488       4.17825183723878      -2.41239256309597
H        -1.02513790875298       5.25886718843136      -0.75932792059862
H         0.17116468257759       5.79052594984467      -1.94631132195224
H        -2.28106480982716       0.83700541228438      -1.49826560429057
H        -0.94470592387887       0.05676066269311      -0.63584128173535
H         2.16289526289514       2.11588447186470       0.26629496588758
H         1.08276127834439       0.74837102850860       0.51122561303805
H        -1.97413631805900       0.64307609274592       1.54112654196576
H        -3.34998543440390       1.38132420212072       0.70202147609827
H         3.68699024842874       0.67236183302756      -1.09872970549763
H         2.58072489940047      -0.69383220251349      -0.88378602205260
H        -3.87526693199168      -0.82050206484628      -0.37118270512854
H        -2.49916680664911      -1.55265979433049       0.46754405462484
H         4.00575200383266       0.80845567314456       1.37336788582119
H         2.88331443624023      -0.53860599044487       1.59810414324822
H        -4.91542976369608      -0.25831284656989       1.83299564020595
H        -3.53519726833130      -0.98482692295694       2.66845499182951
H         4.39746653184261      -2.02322019736249       0.27163853723644
H         5.52087521778809      -0.67465795645478       0.04461332814761
H        -5.45120491430242      -2.47198129028254       0.79412743699079
H        -5.44146586512768      -2.57107153965419       2.56251076787355
H        -4.07040365593169      -3.19763152541326       1.63317407301502
H         4.72806263259352      -1.88272819387650       2.74734805287489
H         6.26387321218193      -2.14308623716312       1.90395159534474
H         5.85277509440125      -0.53412878030812       2.52043633651985
C         0.91362775945727       2.63534549149124       4.16581296805973
C         0.60194244994090       2.45162902864895       2.66336241675601
O         0.95193140837122       3.37730599780591       1.89602153382508
O         0.01679872703860       1.39732327149715       2.33577410090867
H         1.17045529911566       1.67541480611082       4.61003502918262
H         1.72809302325957       3.34490046090963       4.29882980596951
H         0.01979078732638       3.02067987915924       4.65614763867727
