43
C11H21F2N3O4S2 optimized with ForceField in AMS.
N        -1.11258129545382      -1.73350807356173       0.24661243779571
N         1.11020030053857      -1.70075633178611       0.30686559465150
C        -2.50443178754752      -1.46227247311781       0.60029011940822
C         2.47188220861492      -1.38539375028605       0.73561746491289
C        -3.01944058063118      -0.20771964820575      -0.11858483964472
C         3.04936750094154      -0.21676917253257      -0.07541325141072
C        -0.02446482005043      -1.45333624812291       0.98964296106411
C        -0.65173134719366      -2.18348660288313      -0.93816111915450
C         0.72725906650047      -2.16664163935350      -0.89963986771690
C        -2.26994066424252       1.05575310979183       0.32925344626618
C         2.21273893574546       1.06106310805956       0.08205588982924
C        -2.85634211728051       2.30749448356220      -0.31542110873447
C         2.86312315857499       2.24012129170459      -0.63421256976877
H        -3.13107765999910      -2.33524909880303       0.31681199738300
H        -2.59964701626026      -1.32604996268949       1.70013428750243
H         2.48040265064616      -1.12189786815139       1.81640299883124
H         3.11511571526000      -2.28185708320657       0.60349209762577
H        -4.10156067425920      -0.09266824639876       0.10884283289139
H        -2.91155631467258      -0.33832924451752      -1.21764785722233
H         3.10264597562206      -0.50014710124796      -1.14917018423673
H         4.08394463087993      -0.02162444111984       0.27815841079742
H        -0.05836432645599      -1.01546372219620       1.97986850531289
H        -1.27062643680279      -2.46553660088254      -1.77986134115645
H         1.39849394780287      -2.43217982155803      -1.70578352393866
H        -2.32911685536249       1.15855208137152       1.43464567320171
H        -1.20082219391368       0.98098008717009       0.04028058905322
H         1.20217437424046       0.90301941399366      -0.35021604936106
H         2.10106344446359       1.30999090236770       1.15984744676740
H        -3.91508629028910       2.43999287855394      -0.00703749535690
H        -2.80096726466238       2.23388174686618      -1.42239854066163
H        -2.27767094715528       3.19790462062936       0.01005966034523
H         2.97043367797112       2.02123228345276      -1.71797725742698
H         3.86355056497283       2.45077036019897      -0.20012174751333
H         2.22708186507183       3.14282566800859      -0.51579969907259
N         8.20660270525983      -2.73271673089334      -0.12159572624163
S         8.09085018791023      -4.21003591072896       0.57277277448131
S         6.87804342107387      -1.82279461112221      -0.41002556881501
F         7.65483775418909      -5.32992951712949      -0.59212706863830
F         6.21193207910098      -1.34713921592437       1.04975832033970
O         9.41998156295702      -4.59535720750747       1.15680585684988
O         7.04562667002034      -4.19671097988333       1.65294951243499
O         5.86178778032131      -2.62790876894822      -1.17007571421595
O         7.26225578815300      -0.60909344827265      -1.20719947185779
