43
C13H24F3NO2 optimized with ForceField in AMS.
N        -0.83355294422367      -0.20543699665936       0.02528386650485
C        -1.16750365940467      -1.24877669806949      -0.99347904430011
C        -1.96978894080629      -0.23736619314578       0.99720331875499
C         0.43730550036024      -0.56380533803691       0.73637631524900
C        -2.59098675119989      -1.71393777917705      -0.75266538741843
C        -2.80349049192441      -1.47121626311846       0.71422896830731
C        -0.76019246581138       1.13556877951136      -0.64153501089823
C         1.70500657482701      -0.53798483372865      -0.15208446354217
C        -0.40752386275263       2.30735146784232       0.30585472885497
C         2.91617938509982      -1.07590901610027       0.62080083172899
C        -0.50569012159115       3.64419106046930      -0.42487338180537
C         4.18449230646067      -1.02857433780666      -0.22622638867840
H        -1.06504738505219      -0.88863149335021      -2.04281724270232
H        -0.51581777358690      -2.14824437745762      -0.90681074604296
H        -1.64018807895552      -0.24321330556920       2.06138979212513
H        -2.64655042200532       0.64064152345559       0.88343220740852
H         0.33890886290282      -1.58265972170100       1.17924121156675
H         0.60586276410655       0.11631209541063       1.60059229258126
H        -3.29763775656822      -1.09103834942033      -1.34488945594469
H        -2.72753625047486      -2.78671503622583      -1.01141622820596
H        -2.41500599728861      -2.33306577093408       1.30095452312828
H        -3.87843531661730      -1.30989009949999       0.94883636063004
H        -0.01786363562927       1.11979282474190      -1.46995046370040
H        -1.73802864506980       1.36032064453465      -1.12868184536973
H         1.55734469977095      -1.15324680006642      -1.06465078463248
H         1.92872778413922       0.50319076854360      -0.46570295876284
H        -1.09368731007110       2.33354615639595       1.17782666079694
H         0.63087116652554       2.20511532150270       0.68343692706231
H         3.07568620773064      -0.46559915966671       1.53665479107752
H         2.72981102023848      -2.12866459001019       0.92656118407931
H         0.22529856045083       3.67925192743238      -1.26087596608504
H        -1.53094806110908       3.79337552020557      -0.82546139266087
H        -0.28031004260765       4.47147313357064       0.27956981160135
H         5.03938615939136      -1.41545707285006       0.36785925470006
H         4.06736399483032      -1.65953162316756      -1.13297808721425
H         4.40780146738074       0.01648227306821      -0.52993308287045
C         2.52382777173265       6.64482275157545       0.88386898474861
O         3.16358937385681       7.40604094804738       1.59201288895434
O         1.87754797669255       5.74516993201357       1.39570542406164
C         2.52687904484059       6.80915633607655      -0.60669102041099
F         2.99263496209827       5.64998162127389      -1.19873535069691
F         3.34260944077886       7.86396553466485      -0.97799389346161
F         1.24027648043500       7.05852539932534      -1.04617335331795
