34
C10H21NO2 optimized with DFTB in AMS.
N        -0.20457227499619       0.26664535754770       0.23439194404798
C        -1.40179852424528       1.07243326345934      -0.18442740020549
C        -0.03725950318085      -0.91378620224037      -0.66727629122553
C        -2.67450219459361       0.24612311907046      -0.29241621166353
C        -1.28726609966352      -1.78506004284190      -0.71801221908993
C         0.98792223982808       1.18008605659952       0.09346279161868
C        -2.48556431281803      -0.96874090986836      -1.19997194438267
C        -0.34783576228716      -0.14919541345722       1.65832522522198
C         2.25831713569917       0.66225025264208       0.74648951290548
H        -1.16107581724678       1.52604055005041      -1.14964559486989
H        -1.52181197716356       1.85213269975376       0.58641995207898
H         0.81795004262398      -1.49101077020151      -0.30990619248586
H         0.18797665034466      -0.52940882798358      -1.66668736398868
H        -3.45066758032156       0.89769871328071      -0.70133512643201
H        -3.00467802758751      -0.07789653164867       0.69760824678417
H        -1.49316703624743      -2.21296032797933       0.26671241478863
H        -1.09137293022405      -2.61043961586480      -1.40773733763725
H         1.13374056435576       1.34948635070536      -0.97662443209374
H         0.71393830230912       2.11871659255295       0.58506681917096
H        -3.38554863628323      -1.58810596287789      -1.18532866457620
H        -2.31347235306274      -0.64065964447421      -2.23050189131049
H        -1.33374626015921      -0.57352965738222       1.82021799060417
H         0.41500469135253      -0.88743537002807       1.89550630670554
H        -0.22022469819263       0.74387436017190       2.27400034945551
H         3.07706797631910       1.30661415284550       0.42694839852614
H         2.17564344274380       0.73643119790578       1.82981261110673
H         2.49360581615355      -0.36275501082502       0.46171595271659
C        -0.67593290786823       4.25264879471254       3.75459048073899
C        -0.54967957839514       3.01976499221793       2.83235065613442
O         0.60205396713128       2.57272258947890       2.62991359732541
O        -1.61208740492221       2.56753651966082       2.35178065952748
H        -1.42821331542063       4.05713446268883       4.51736494217872
H         0.28021525895800       4.47940018077592       4.22190721159596
H        -1.00224440983949       5.10293622155276       3.15647743012878
