48
C14H28F3NO2 optimized with ForceField in AMS.
N         0.00069845757126       0.00342457414818       0.00075710977975
C        -0.84708939716642       0.65551667499930       1.06155094149973
C        -0.85111999251503      -0.63931704864334      -1.06267366023818
C         0.84240536805984      -1.06308639699838       0.65067684879841
C         0.85827105618959       1.05934472419935      -0.64601633976076
C        -1.92021085937284      -0.25005120135299       1.72105898721892
C        -1.91705417558829       0.27441831761477      -1.72153721555393
C         1.90598872171298      -1.73419618572800      -0.25595053251822
C         1.93044144373800       1.71299616529156       0.26428006654780
C        -2.71389668248749       0.52521304943144       2.76990751522133
C        -2.71533070307021      -0.49618134615623      -2.77081719785698
C         2.67079029475296      -2.80653733044886       0.51609270511849
C         2.73067376292578       2.75935744492241      -0.50813601214167
H        -1.35224812935244       1.56047903406743       0.65607851317025
H        -0.20540948378959       1.02499931299349       1.88994971445129
H        -1.36341211322784      -1.54156390692990      -0.66000426869858
H        -0.21182000941954      -1.01100084199665      -1.89187287281333
H         0.19463643108749      -1.88514718216317       1.02316443225432
H         1.35516008790847      -0.66103139223866       1.55300336383465
H         0.22283067099865       1.89079970881694      -1.01984392610434
H         1.36767473760289       0.64990578112863      -1.54693205639256
H        -2.64206620153342      -0.63581778836626       0.97385127904698
H        -1.44965964811091      -1.11179631599911       2.23530087172991
H        -2.63723449910704       0.66392849947036      -0.97470180867620
H        -1.43942382838623       1.13354322256799      -2.23387965040100
H         1.43018100748241      -2.23078155600393      -1.12488247015518
H         2.64499823163023      -0.99743382073908      -0.63030946016377
H         1.45853159468064       2.22719863244963       1.12535495530466
H         2.64864075546949       0.96232232202093       0.65044144234628
H        -3.47081880193125      -0.14310089513010       3.23239728586650
H        -2.03747707221592       0.89818721074646       3.56859591153771
H        -3.23873633223400       1.38445187403979       2.30071836034553
H        -3.46805685286052       0.17610656060935      -3.23419140646433
H        -2.04101695035644      -0.87456799829616      -3.56877004971942
H        -3.24572226181464      -1.35202108315068      -2.30137644982836
H         3.39533455136127      -3.30585300882346      -0.16060503534242
H         3.22625333497402      -2.34973700630073       1.36276806134839
H         1.97167553238079      -3.57578434016296       0.90806911164261
H         3.48746040967579       3.21887295992774       0.16224691170920
H         3.25630882242789       2.28844167554959      -1.36605382707795
H         2.05855577120641       3.56067612419756      -0.88347640024003
C         6.13895556678470      -1.32290017087658       0.74765731054211
O         5.90797407614820      -2.27557981058989       0.02050519971059
O         6.23096620133993      -0.20524184780341       0.26586415214606
C         6.32083221346985      -1.51866566516433       2.22296153172559
F         7.62074101894788      -1.20198291724200       2.57131668369117
F         6.06635570923007      -2.83315082657187       2.57447900113484
F         5.45094754818260      -0.69291494151620       2.91093686142416
