47
C13H13F18N2P optimized with ForceField in AMS.
N         0.07830154057308      -0.61001127416461      -0.44193415948355
N        -1.98822233862228       0.13339142865038      -0.09750806517402
C         1.44840021264251      -0.70933983808692      -0.94276976564294
C         2.46481685603749      -0.41492023796233       0.16679934687381
C        -0.83185930741488       0.33172180079591      -0.75892640963765
C        -0.52466671749276      -1.43214681207725       0.44074577856521
C        -1.80737277683549      -0.96918740164719       0.65507176165769
C         2.33415660417793       1.01233713384818       0.69700128714940
C        -3.18854394363682       0.95707843983291      -0.15634658873747
H         1.60192564210519       0.00362025868913      -1.78289923965502
H         1.61938863845382      -1.73367970631352      -1.33816048230551
H         2.33145128783120      -1.13449126117838       1.00324383715641
H         3.48934059004378      -0.55210590667601      -0.24134744397453
H        -0.65037105594334       1.15186620127902      -1.44297368759009
H        -0.06553881698625      -2.29888714541616       0.89821566920850
H        -2.54869315091565      -1.40022763640663       1.31557301595044
H         1.35095244442889       1.15434957712908       1.19389891297138
H         2.43403471798491       1.74450749262632      -0.13259828299095
H         3.13434099193138       1.20720978318070       1.44124594925783
H        -3.04045496489416       1.81318036527564      -0.84892000935439
H        -4.04339347090778       0.34694229575285      -0.51624921700177
H        -3.42017349035141       1.35119177204858       0.85563972604018
P         7.10191117186279      -5.20783748853177      -1.19448739224969
F         6.70904322867961      -5.49891563734162      -2.84538030057309
F         6.48909366174997      -6.44738145868685      -0.16549536980688
F         8.05134416229802      -4.03919227673132      -2.02693638207775
C         8.27438274464731      -6.69971908575110      -1.59600106167666
C         5.26963563426217      -4.62641137645953      -1.42578787624858
C         7.72546159438621      -4.09772352582562       0.25948158254064
C         9.30113391474717      -6.51904083551001      -2.74724191248114
C         4.50488431059088      -4.18598936284239      -0.15948256219209
C         9.20258700740796      -4.24646617680177       0.67410500038912
F         7.50060159096646      -7.80248937606075      -1.93693408594112
F         8.98256880571429      -7.04757811122355      -0.46319268154341
F         4.51713836900811      -5.65852196276514      -1.97955252737936
F         5.24913801655745      -3.55362706168674      -2.30618685323638
F         6.98560387012687      -4.39333602734842       1.39047785148856
F         7.50163133853960      -2.76104974359740      -0.04085350443023
F        10.13739967511386      -7.62125222661599      -2.76999109470820
F        10.08922044005405      -5.40070247300876      -2.58068127884206
F         8.67568058926891      -6.44634617239303      -3.97882858998261
F         3.17955407289031      -3.96990707938170      -0.49468928209790
F         4.53658992441281      -5.16167868784537       0.81928396274375
F         4.99950141139268      -2.99991685760749       0.34475507610521
F         9.40424754850371      -5.43308418042003       1.35323170292110
F         9.53086434812156      -3.21549518726472       1.53731595693951
F        10.05499768468784      -4.17635903837863      -0.40489128624367
