26
C8H15ClN2 optimized with DFTB in AMS.
H         0.84312607318053      -1.55783756358705      -4.38449528563542
H        -0.68052908849317      -0.63013900226343      -4.45691523073018
H        -0.54651421834954      -2.03110759548563      -3.35435016510041
C        -0.00807731236027      -1.19598364561476      -3.81196540998680
H         2.53488343970854       0.69745697217248      -0.45142553999852
H         2.58975946026332      -0.63232957210095      -2.87378492420553
H        -1.40585946941557       0.28589144317901      -1.88999065890261
N         0.46566912549063      -0.34908860909570      -2.73231177100106
C        -0.34581660385612       0.14325859234294      -1.78940406181753
N         0.41997136113604       0.67833843245975      -0.83498143759798
C         1.73835750639384       0.40146161800611      -1.11104956179081
C         1.76469243767848      -0.24800466833751      -2.30026899353153
C        -0.07611172630868       1.21122087132674       0.42747864680693
H         0.56335257198515       2.04969646383146       0.72045688805796
H        -1.09135883185316       1.58054933787494       0.25860683253714
C        -0.06891614668148       0.10711571383754       1.49027526670849
H         0.96002419618359      -0.22706200163364       1.65368077566875
H        -0.64563489899723      -0.74205784268070       1.11143821758598
C        -0.67246507471106       0.61490803767191       2.80125297907666
H        -0.08728406853237       1.46354096476461       3.17408118738524
H        -1.69361879247652       0.96671795296632       2.61903043290360
C        -0.69749868375416      -0.49223193277390       3.85349822420159
H         0.31414065158938      -0.84092371199846       4.06503286169873
H        -1.28943878040049      -1.33704253091005       3.50085052608870
H        -1.13792854989340      -0.11848199371487       4.77803168697851
Cl       -1.13825893022631      -2.07753134603714      -0.90169153259988
