37
C11H24ClN optimized with ForceField in AMS.
N        -0.54806038155907       0.09524741586312      -0.11358952906568
C        -1.49444342493426       0.54037183693902      -1.18843053534934
C        -0.92426814327058      -1.29159782022172       0.31754814918688
C         0.81863051447417       0.04925153489314      -0.74008647260106
C        -0.58087959436586       1.01671596371285       1.07583423702724
C        -2.97821114675654       0.46356040544067      -0.79015995208310
C        -2.40125296666260      -1.44150145023404       0.73587614020093
C        -3.34187842140006      -0.95380154402053      -0.36127731526210
C         1.98422749464145      -0.31667789925364       0.21181677266149
C        -0.13039894594510       2.46481943538130       0.81172784861519
C         3.31144334889700      -0.37408707729798      -0.55443642690405
C         4.46699583234262      -0.74949821492649       0.36903380062094
H        -1.37234144204103      -0.09912933971754      -2.09410132226970
H        -1.26824923990095       1.57198944662586      -1.53013493862330
H        -0.31198938662781      -1.62049797980596       1.18449221782487
H        -0.73503726692086      -2.02051886060080      -0.50406625380826
H         1.05766324866594       1.02242511292111      -1.22364298203645
H         0.82736708020881      -0.69011883287480      -1.57446229079028
H        -1.59710056383127       1.08010946996265       1.51031528906104
H         0.04128670450080       0.60995163600859       1.90181837637440
H        -3.60085005119063       0.74231514910009      -1.66809700588183
H        -3.21742652093430       1.18855262353734       0.01480775658116
H        -2.60263926488828      -0.89751169940673       1.68205944791477
H        -2.61017710224203      -2.51522354478846       0.93458682544054
H        -4.38871627006602      -0.97250941737340       0.01108070386941
H        -3.27507815019989      -1.63622923684889      -1.23723953276121
H         1.81127283056531      -1.30905603599001       0.67514094847101
H         2.08626468759394       0.44269632124601       1.01405706780127
H        -0.16684563435945       3.02820076566511       1.76828508035827
H         0.91299215153789       2.51900339428246       0.44358452802486
H        -0.81031475331321       2.98232789724843       0.10643503732795
H         3.52356038536980       0.61729199272909      -1.01075167894349
H         3.24418701682195      -1.12908585214000      -1.36780259388593
H         4.29203885768048      -1.75048439912678       0.81790790792484
H         4.57224442629940       0.00199504188056       1.18016650928482
H         5.41270418232077      -0.78087869146998      -0.21195421411791
Cl        2.67677819438946       0.49018274076037      -4.18876401078819
