45
C13H18F6N2O4S2 optimized with ForceField in AMS.
N         2.37252010169160       0.03481313726780      -0.53750771838254
C        -1.44420343143972       0.04082359213767      -0.69608401585754
C        -0.04069232302774       0.02271394712276      -0.08099130902474
C        -2.51962213332520      -0.01563403209772       0.39614945879636
C         1.04439129295151       0.08202096229550      -1.16078756933969
C        -3.92497851698051       0.00931931771123      -0.21391036272830
C        -4.99755267180322      -0.05778278881368       0.86957608808602
C         2.96424231724164      -1.17439010359070      -0.29244031039140
C         2.98760467495439       1.19737483605327      -0.16043519068407
C         4.20216160203507      -1.24051802024394       0.35120283069141
C         4.22603656036835       1.16685133808373       0.48516939673656
C         4.83318560288429      -0.06119817306992       0.74431740645991
H        -1.56090528459023      -0.83381522670523      -1.37285017350017
H        -1.57283150578050       0.96688080201039      -1.29786523373088
H         0.07808164593481       0.89350299638212       0.60081872911969
H         0.08885284728012      -0.90834541770193       0.51346449997275
H        -2.39180167804810      -0.94831855236648       0.98890045470055
H        -2.40030309345108       0.85294322326248       1.08070746070230
H         0.93207955219053       1.01494240691801      -1.75761499838396
H         0.92216654586319      -0.76950692484916      -1.86719674626321
H        -4.06262445510622       0.94400422265168      -0.80024743390224
H        -4.05059881690011      -0.85812717546482      -0.89794150980214
H        -4.91360694632066       0.81560640409763       1.55085174374430
H        -6.00292046966868      -0.04562571764303       0.39857475243343
H        -4.89349104281914      -0.99390491226564       1.45879118419443
H         2.47397245808812      -2.09617195335475      -0.58306360120798
H         2.51577378853320       2.15520218229737      -0.34620767739303
H         4.66304167995849      -2.19935034010414       0.55101958298922
H         4.70577958700750       2.08806991567236       0.78968647427172
H         5.78771674307619      -0.09917176319501       1.25297116074422
N        -0.90872724856359       5.07163663067452      -1.65764245531772
S        -2.10596593482010       4.59419607028085      -0.64555359225691
S        -0.54028646706052       6.64803357078850      -1.91375875834297
C        -3.60836652426387       4.38025356348058      -1.57802820323610
C         0.86111007470822       7.08818159060277      -0.90778335818525
O        -1.72708063308989       3.28274974987982      -0.02150637316138
O        -2.32850438202237       5.61485695680317       0.43554317786466
O        -1.70455675559325       7.53386824784865      -1.56653442777901
O        -0.17746572709023       6.83994457930561      -3.35892150159351
F        -4.61513099366568       3.94135906770567      -0.73947585728007
F        -3.40458697064295       3.44680138710407      -2.57656870980573
F        -3.97845290591030       5.58437810524699      -2.14644371403227
F         1.16758323205731       8.42167117591640      -1.10079932253338
F         1.94764112900940       6.31190674566452      -1.26381134409249
F         0.56314808554993       6.87456459190002       0.42460237300118
