55
C15H20F18NP optimized with DFTB in AMS.
N         1.06815940252029      -0.44102350727117      -0.41664044572751
C        -0.19013080279656       0.07386208302059      -1.04846493306435
C         0.70820081968005      -1.20275825310864       0.82685004078196
C        -1.00055065510705       0.95469027313231      -0.10620260015678
C        -0.14239377662119      -0.40212238176866       1.80806688905330
C         2.01830394343564       0.67648407621641      -0.05779824340001
C         1.72475223307447      -1.37438908581228      -1.41764150681275
C        -1.39336519160646       0.16511437545837       1.14081940720654
C         2.28260390442094       1.68237706092651      -1.16581370049513
C         2.64909385031439      -2.42721290646430      -0.82491250665503
H        -0.78510926606637      -0.79943800750480      -1.33068924763947
H         0.08949700926608       0.61251393164377      -1.95502323932624
H         1.64081177428068      -1.50102963256714       1.30835452495859
H         0.16517354920620      -2.09557810183844       0.50504722676837
H        -1.89672156762119       1.27629238845889      -0.64287448252761
H        -0.43792320212674       1.84907316576061       0.17100163521438
H         0.44320931361371       0.40496216937107       2.25488081018022
H        -0.42822524827377      -1.08341761851594       2.61375041129260
H         1.61162301693214       1.19435906205971       0.81085942323333
H         2.94749303599829       0.19457245505951       0.23976195268010
H         0.92016646077410      -1.87138602877024      -1.96532348792891
H         2.27988207276987      -0.74546506278459      -2.11470843764450
H        -1.92053076860027       0.81594004224117       1.84177886031234
H        -2.06659183568042      -0.65139412904518       0.86029511724839
H         3.07874454645355       2.33623174903030      -0.81372365503399
H         2.62689183980889       1.20904328494942      -2.08276049061076
H         1.40808145249044       2.29432923182218      -1.38253675530361
H         3.21700652369818      -2.85767518160837      -1.64935898577619
H         3.35419146706575      -2.00351867449182      -0.11698598604603
H         2.08720358266892      -3.22649198184820      -0.34371315925587
P         7.03444022237321       0.38291839900010      -0.13606452128198
F         8.13396661041909      -0.03241767283525      -1.32109483444138
F         7.30495048612694       2.00785203603964      -0.43479437089626
F         6.66762323379603      -1.23626023330375       0.16953834307235
C         5.66901111397502       0.34063900103144      -1.56161003682292
C         8.51194608998061       0.25260796454059       1.13005496395223
C         5.68652721425866       0.97932017268673       1.25471605216223
C         5.97395527492738      -0.41660643442218      -2.87955133260501
C         9.52044674733245       1.42875002968426       1.20995333767230
C         4.90834334769476       0.00815574344026       2.18536008655865
F         5.24656054336213       1.56211363306960      -1.93376051116853
F         4.56253610542836      -0.30067362373279      -1.07292994586756
F         9.22454956999273      -0.84334121098166       0.82545829790325
F         8.02422145313782       0.06412757110864       2.37214270754025
F         4.70211054582095       1.66505680895630       0.60628663109929
F         6.28106959824269       1.87053721548060       2.06687949193691
F         4.82091435196467      -0.53509806254609      -3.57331138349603
F         6.42072813910924      -1.64597411260772      -2.66009344907480
F         6.83454051996980       0.22968501607233      -3.64934941738350
F        10.53149137315834       1.11260321061150       2.02349213660997
F        10.03069189654381       1.70389220895712       0.01408155255597
F         8.94557464663472       2.52839695841630       1.68797126626697
F         3.85138991869239       0.64549555881762       2.72678195067262
F         5.63428003038113      -0.47951333656070       3.17171065873719
F         4.38578617100450      -1.02840984477393       1.50437740867241
