31
C9H20ClN optimized with ADF in AMS.
N         0.22946312608734      -0.14072972405772      -0.20612159202811
C        -0.63389295341610       0.75378478280270      -1.06828328465167
C        -0.54399893756769      -1.40686300612184       0.15197735337383
C        -1.97662727304023       1.08846028670291      -0.43937540855806
C        -1.89116262896079      -1.10185035180271       0.78083848104540
C         0.65361307943054       0.55204699115710       1.08365979849960
C         1.43742232572779      -0.52045654149780      -1.04522003852027
C        -2.74929434450081      -0.18173147048495      -0.08358204653651
C         1.59888376250293       1.71880300225090       0.89616391260486
C         2.46070725423477      -1.40013012489306      -0.36036904198841
H        -0.78881793689586       0.19906394238520      -2.00888553053768
H        -0.04781148467264       1.65599217808260      -1.29521227594818
H         0.08961227367197      -1.96250746674715       0.88675836345307
H        -0.66162122143334      -1.95856350009333      -0.79594143981153
H        -2.53468702808011       1.69937392490632      -1.16841677389850
H        -1.83789603947329       1.72034445066551       0.45415842630370
H        -1.73799427700067      -0.68358266539305       1.78948808786360
H        -2.38859314442695      -2.07240659556216       0.93948927628577
H        -0.27415251274947       0.88618321385908       1.56202628059047
H         1.07125792530436      -0.25784591534320       1.73315662086768
H         1.02058186927571      -1.02033931166022      -1.93450257710104
H         1.88106629521736       0.43031906022053      -1.37802235062580
H        -3.68856860386704       0.07601052163752       0.43119575884337
H        -3.02456201986092      -0.70600536780565      -1.01789634494074
H         1.76675280055513       2.15547058359868       1.89218754641742
H         2.58211351733130       1.41054028724599       0.51401278525561
H         1.19905580215105       2.51896128169130       0.25315390070151
H         3.27502403685405      -1.57809177305653      -1.07967413543657
H         2.87974020013094      -0.94156040667514       0.54486768966423
H         2.04483225206196      -2.36430637294663      -0.03917810754402
Cl        1.24999374690873      -2.21567672386522       2.73171155505696
