56
C16H32F3NO3S optimized with ForceField in AMS.
N        -1.08589272247064       0.82841093475890      -0.18010894698422
C        -1.57508004521487       1.86798203136699       0.78364790537204
C        -2.05930470359933       0.73547059753706      -1.31680738057040
C         0.21540617420713       1.29466958552459      -0.77218374055520
C        -0.93138938529142      -0.48528338064003       0.53788610768227
C        -3.01906168969795       1.63567920509348       1.27624795126422
C        -3.50487396957905       0.44247009658574      -0.88377465637141
C        -3.99025468608915       1.49528797326719       0.10782483810492
C         1.41859707392825       1.36770264491814       0.20137521871581
C        -0.34583400485112      -1.64673792854085      -0.30090658285779
C         2.66587443488921       1.88276636084565      -0.53035082165252
C        -0.22230391944121      -2.91547951762249       0.55342244128080
C         3.88389246792544       1.92532408176997       0.39942561914874
C         0.36151416921204      -4.07616258040170      -0.25950774847007
C         5.11758108715581       2.43851656134802      -0.33873587029996
C         0.47496383326916      -5.33918041576235       0.58932066339654
H        -1.54152522829839       2.87970488794879       0.31692128308325
H        -0.92790562247536       1.91147818368788       1.68604034973495
H        -1.74739584637459      -0.02627466989308      -2.06136272039437
H        -2.08121614234928       1.69841923225064      -1.87999326422036
H         0.08579135834263       2.30916780905410      -1.21672437179141
H         0.50448752836678       0.64555387445794      -1.62900122594800
H        -1.90338158153242      -0.83731738075566       0.93381505810011
H        -0.30061463571691      -0.35332926263072       1.44444273635040
H        -3.33108869820547       2.50446290074162       1.89526963652038
H        -3.07900151750176       0.74280410224520       1.93236174411831
H        -3.59802633243229      -0.57503305339107      -0.45181089111896
H        -4.15959607401921       0.46977350279047      -1.78172898709688
H        -4.08243230529945       2.47392484149339      -0.40799678508677
H        -4.99496157193556       1.21170449129234       0.48855798400622
H         1.19834220310989       2.05503247892743       1.04340483840577
H         1.65301577151315       0.36361835873438       0.61009566848017
H        -1.00892850512642      -1.87603437528529      -1.15930276193638
H         0.66213247940342      -1.38853619823650      -0.68388695091468
H         2.46674477003399       2.90534831362920      -0.92048330334220
H         2.88916482108239       1.21428247867171      -1.39125761764006
H         0.43732785272717      -2.71032925529231       1.42553691756122
H        -1.22828474287977      -3.20328011535166       0.93190143731704
H         4.09614619801143       0.90518113825589       0.78755215732443
H         3.67531162152658       2.59476440489865       1.26218261503938
H         1.37206668708060      -3.80119142413438      -0.63277138982234
H        -0.29197238381947      -4.28800530446337      -1.13374963942793
H         5.98555665103722       2.45884627314900       0.35323862271323
H         5.36069096335208       1.77182991101011      -1.19358960916590
H         4.94025019824036       3.46798593172291      -0.71675172580129
H         0.90267087395810      -6.16118473754498      -0.02225254945965
H         1.14110434487267      -5.16027533918751       1.46013611950282
H        -0.52752767803122      -5.65110787616376       0.95245035989152
S        -3.15413890543550       5.22857522294017      -3.89229556640758
O        -2.45603253809720       6.50395098248235      -4.38729662648943
O        -1.99560889376665       4.23155223948791      -3.74055474979553
O        -3.88734600338006       4.72423143100987      -5.14408646646899
C        -4.19464105991933       5.43760625781809      -2.42095159876292
F        -5.18061736919432       6.36986329210820      -2.68083850946307
F        -3.41779003693843       5.87074008724854      -1.36332855712365
F        -4.78110886438172       4.23001079262519      -2.09892526967459
