39
C9H20F2N2O4S2 optimized with ADF in AMS.
N         0.17972907537975       0.13480345298533       0.11263281205037
C        -0.01864500124293      -0.62360448754766      -1.18702489032271
C        -1.19569025655948       0.05258938499414       0.73781113434021
C        -1.37841211242021      -0.16429993662283      -1.69757527125672
C        -2.17727612079844       0.22889729435553      -0.42711835557793
C         1.21743457970222      -0.53261290175965       0.98392959921652
C         0.53350514087525       1.58793695505769      -0.19334568902152
C         2.61985777575309      -0.52695765909411       0.40292549078173
C         0.90899893584053       2.41259153572551       1.01764452045809
C         3.56901123540113      -1.29874037732624       1.31757757253677
H        -0.01979402091697      -1.69098202820402      -0.91693128027115
H         0.80150021595256      -0.41552812898947      -1.87839559969352
H        -1.27787210721875       0.80369396055694       1.53319328007165
H        -1.27350584855993      -0.95028055342458       1.18378019619777
H        -1.86053560396871      -0.96896701265987      -2.26957665090786
H        -1.25386554447080       0.68515837331691      -2.38441172371331
H        -2.53938240336530       1.26513306365812      -0.49063986067839
H        -3.05761866975144      -0.41148959867190      -0.27302155651790
H         0.85861200561675      -1.56488679678811       1.12942591015172
H         1.18637881078332      -0.02495105252578       1.96043396007189
H         1.34999499555046       1.56359115670121      -0.93222956773294
H        -0.34988833059064       2.00556728682517      -0.69562130763091
H         2.62484644147910      -0.97983848826828      -0.60049213540503
H         2.98468284111620       0.50415639122819       0.28780237385607
H         0.11876781300714       2.45696303230832       1.78294440445540
H         1.84820531016109       2.07589356943701       1.47547624812448
H         1.09264191098181       3.43750723935392       0.66215706667908
H         3.62281160159037      -0.84249514407152       2.31886106810989
H         3.25336471214318      -2.34775158503121       1.43463108857344
H         4.58114742098277      -1.29362237365156       0.88925629850351
N         2.69435316508135       1.50986411088104      -2.49469077248164
S         2.57450429717303       0.50415373951105      -3.73961777688963
S         4.12606750566740       1.97551517241894      -1.90974286360377
F         2.95864078521525      -0.97086707339093      -3.03420298501199
F         4.58750984412730       3.14820516053908      -2.96088711962717
O         1.15089545726299       0.35717034616252      -4.01180728331149
O         3.53492729100477       0.65152126928154      -4.80849340456991
O         5.18371770242361       0.98717688106306      -1.96147431267016
O         3.83828706819119       2.68658579626651      -0.67212164188295
