46
C14H26F3NO2 optimized with DFTB in AMS.
N        -1.35588983576708       0.21697749415750      -0.09104942301837
C        -1.47247630239900       1.41373224052148       0.80667009972674
C        -2.50691750856564      -0.71318664695123       0.15701305561307
C        -0.10296114859880      -0.55311946916930       0.24858506839785
C        -2.80965833670878       2.12484563466911       0.65991597401527
C        -3.86747388089018      -0.04028372183055       0.00994334317179
C        -3.97490684068823       1.17573658860436       0.92871109492494
C        -1.31506385185450       0.62270282640204      -1.52295150731622
C         1.20404445704701       0.21129619957470       0.05680179501085
C         2.38376849251896      -0.68954649933867       0.43502012277584
C         3.70495279900801       0.06357618800428       0.24784245253990
C         4.90398964831438      -0.81391902602341       0.61834461408565
C         6.22014826046254      -0.06294297306441       0.42348426461743
H        -0.65599023647646       2.10448256200288       0.55750945009571
H        -1.34408791036195       1.05666971421146       1.83236688699789
H        -2.39442629921360      -1.09625561969432       1.17530894156145
H        -2.41158772843289      -1.54477227355922      -0.54551130510248
H        -0.20205990865997      -0.86563451819377       1.29245607797158
H        -0.11111734401905      -1.44797903237771      -0.38143581032026
H        -2.82168613863965       2.94406879783241       1.38301007096026
H        -2.90181027898902       2.56262597419944      -0.33724947753891
H        -4.04009965493020       0.25543461492934      -1.02807455303523
H        -4.62803515807674      -0.77977447212249       0.27460001630024
H        -3.95356632558974       0.84921237817528       1.97355825945337
H        -4.92361382008279       1.68730758634488       0.75064098755890
H        -0.51760195800817       1.36158851315090      -1.65961327771750
H        -1.12028629369497      -0.25891335717297      -2.13078743555029
H        -2.26716299788981       1.06113179439470      -1.80701216743767
H         1.31417856839605       0.53077155013834      -0.98112095382502
H         1.21847357023010       1.10528388432251       0.68291101818252
H         2.28567592350959      -1.00897589907540       1.47888229553095
H         2.37874084216297      -1.58852908975226      -0.19197373499780
H         3.70003394499998       0.96141762675644       0.87413311096609
H         3.79315193743022       0.38490418670084      -0.79472108285980
H         4.90308602550683      -1.71569000317353      -0.00406295484386
H         4.81593612547336      -1.12991318426574       1.66377111939671
H         6.33211995994582       0.24701726113331      -0.61621954688288
H         6.24917942290220       0.82584158373098       1.05499961900533
H         7.06074525594413      -0.70517921861964       0.68760297308315
C         1.10055399434072       3.40584946151284      -0.99205986607637
O         0.89428724796423       2.62779201758641      -1.92721817172193
O         0.79178236780616       3.32051054430661       0.19887818031833
C         1.88821824981188       4.73834373488163      -1.40094240302814
F         2.27020647107836       5.46291768215591      -0.33954258057356
F         1.12153874960218       5.53950004561729      -2.16656174343151
F         2.99750008838155       4.46477777696668      -2.10918440158401
