44
C14H26N2O2 optimized with DFTB in AMS.
N        -0.21581679691289       1.13218811304807       0.80646191566757
N        -2.22368028253797       0.89813587274105       0.06274572437210
C         1.23156466642569       1.30571983855089       0.86976277816094
C         1.91878969804139       0.00389959373721       1.29209535508360
C        -3.36444287498934       0.75857429227854      -0.83407722546485
C         1.83313945440530      -1.06703482988803       0.20335911666428
C        -3.74521384749561      -0.71001158785559      -1.05133410158063
C        -0.95142451222317       1.07415062763739      -0.30518023833980
C        -1.02144513468087       0.92878201838135       1.89264258153464
C        -2.29285113094288       0.78594575836172       1.42347185616208
C         2.27058545677849      -2.42875135538792       0.74902631815588
C        -2.75268997803600      -1.47374981520271      -1.94396414012058
C         2.23827439353812      -3.50004066100035      -0.33862406857275
C        -1.74462391721161      -2.27940294027042      -1.12791507758538
H         1.43650722617550       2.09504820433381       1.59960000914829
H         1.57462960209853       1.63617047707175      -0.11517138089367
H         2.96398474309437       0.23301872226760       1.52047189416099
H         1.43761997675810      -0.36852176754018       2.19950137393490
H        -4.20141584605407       1.29327871369393      -0.37527636362484
H        -3.11198039091280       1.24597313355412      -1.78106424814966
H         2.45027822816836      -0.77779033594666      -0.65568797837561
H         0.79512529128206      -1.14209367166335      -0.13066404949130
H        -4.73475581243329      -0.71049992923672      -1.51729709265048
H        -3.82205143527669      -1.20127874156571      -0.07711633832714
H        -0.59238120063808       1.19840231019076      -1.31155690384421
H        -0.63314785274198       0.89299758956203       2.89321781528014
H        -3.22344521871563       0.64122104174464       1.93860728438235
H         1.58876105598925      -2.70975891583516       1.55773936425452
H         3.28292588851436      -2.35577271283509       1.16213961733379
H        -3.31658996813526      -2.15801653372041      -2.58646466517418
H        -2.22540981903425      -0.77138461204247      -2.60146799257521
H         2.91494329722183      -3.24299063536484      -1.15604327219498
H         1.23006853755439      -3.60144861452311      -0.74257191417882
H         2.54339693619705      -4.46152973823141       0.07537554259597
H        -1.20872308987431      -1.63488628837792      -0.43352183758843
H        -1.02717184637363      -2.76325470518513      -1.79178420133390
H        -2.25872308282748      -3.04344313435619      -0.54586051530973
C        -1.72531864170504      -3.20875425437978       3.25595704740468
C        -1.62937144094731      -2.02528348524786       2.25904557070513
O        -2.70623389777728      -1.63663267402269       1.75784625673907
O        -0.49177608876566      -1.55558974696136       2.04489857703429
H        -2.56991033907244      -3.05517230166324       3.92561215780571
H        -1.89214625556860      -4.12386131952652       2.68840722949294
H        -0.80301302445855      -3.30062234712406       3.82636710700224
