51
C13H28F2N2O4S2 optimized with ForceField in AMS.
N        -0.71281306978679       0.52435764165413      -0.21463541811692
C        -1.69255891531861       0.25599582331480      -1.31785114186431
C        -1.26245723302799       1.61071753233777       0.66149620219113
C         0.54300581827983       1.02878247417091      -0.87026530799733
C        -0.45042399168528      -0.70473334372895       0.61408603270453
C        -3.10940895965112      -0.08858723541625      -0.82973180240137
C        -2.68104049889803       1.32975112524492       1.19598002732227
C        -3.65247441228925       1.02659667024230       0.05894379778684
C         1.73629910901506       1.30089642945859       0.07905852534507
C         0.22050085789102      -1.88659828129379      -0.12793579101806
C         2.93784389121482       1.84358341510105      -0.70438161976061
C         0.45134076495563      -3.06300384166390       0.82837758284738
C         4.13799047028831       2.06852379043476       0.21087707425848
C         1.11232762789391      -4.23794224233502       0.11195378233695
H        -1.33879238701989      -0.55089900825384      -1.99251728145922
H        -1.78874695449066       1.15630281637069      -1.96950523238632
H        -1.30140733936346       2.57659878281583       0.10637312205757
H        -0.61291396909403       1.77656931985910       1.54751212065937
H         0.32928169869984       1.97725580232876      -1.41615702614082
H         0.87993516803607       0.32011162360166      -1.65933564394201
H        -1.38888912735394      -1.09383583147232       1.05391976717550
H         0.17494758385283      -0.44492930665074       1.49618019763123
H        -3.12672878752949      -1.05935538419046      -0.29315212216689
H        -3.77601689265290      -0.20010142017572      -1.71214234798192
H        -3.04079722217066       2.22665687726340       1.74561804076982
H        -2.67227642104460       0.49326747737060       1.92542113112499
H        -3.80883869708012       1.94479712497144      -0.54957886122179
H        -4.63456754116075       0.72222424811998       0.47986351317831
H         2.05228724671143       0.36639407664587       0.58603817945671
H         1.46141174367199       2.05063414593838       0.84843800409268
H         1.20377061632913      -1.58560110269212      -0.54248310771381
H        -0.42610813366661      -2.24102750874585      -0.95582358323732
H         2.66661243134666       2.80862976580403      -1.18542127401629
H         3.22490850875081       1.12143052735024      -1.49955415543964
H        -0.52109575561533      -3.40093413739309       1.24871481141621
H         1.10502211087850      -2.74093870757566       1.66826013194770
H         4.43516605918005       1.11409723476061       0.69526082583295
H         3.89230117545299       2.81583781607369       0.99517637497297
H         4.99583879266047       2.44703590709030      -0.38424452375534
H         2.10490301424007      -3.93788826590950      -0.28649805174642
H         0.47194758526262      -4.58885322423234      -0.72512230233038
H         1.25473211997472      -5.07685786637727       0.82517274364195
N         9.16005161231153      -0.28886180086776       0.88646479913874
S         7.99387482303901       0.62279697975474       0.18851254418140
S        10.52471908629139      -0.69415503351114       0.08047329557210
F         7.04013834540857      -0.35075199115278      -0.78419155174018
F        11.45860623021852       0.67577548474870      -0.15310688831670
O         7.14098045684618       1.24304673163885       1.25764119772846
O         8.61298191222567       1.69974260153904      -0.65772526355484
O        10.17205434289934      -1.27571212358586      -1.25965819146586
O        11.30234072287253      -1.69869871388078       0.88225401500305
