34
C10H22ClN optimized with ADF in AMS.
N        -0.43292972487511      -0.03896921839008       0.00565238480329
C        -1.32980210387129      -0.66633330150464      -1.07699503420732
C        -1.40733190285807       0.47419661684412       1.08025869024394
C        -2.70027321801584      -0.04898793045146      -0.86760273075561
C        -2.79123655072163      -0.00043972397247       0.65800334840896
C         0.34605076708092       1.10121435506459      -0.59574263516946
C         0.47633640239694      -1.09484130715727       0.60958793924713
C         1.28737887522583       1.80999072433726       0.36404728357885
C         1.43549130351245      -1.72645351053584      -0.38581419507371
C         1.87201934521780       3.05695160092221      -0.29697933763131
C         1.89891779199909      -3.07936212788589       0.15940152616828
H        -0.87548276791597      -0.48246266039293      -2.05886622522877
H        -1.39231855558933      -1.74772121668654      -0.82570047461490
H        -1.08659720238833       0.07472567649038       2.05064035683642
H        -1.33104015160136       1.57014175375697       1.08645491643465
H        -2.78752539437774       0.95274483468176      -1.32396125309622
H        -3.47172790940199      -0.70353685742817      -1.30130700082278
H        -2.94715492681537      -1.03074414868939       1.02972072108673
H        -3.57644423286591       0.67237331335276       1.03355197549571
H         0.91320556439053       0.68366195583348      -1.44162220765758
H        -0.40157409009002       1.80178269623553      -1.00346135705527
H         1.00954873357340      -0.61718335316391       1.44573688524100
H        -0.22967789185132      -1.87167841685596       0.99030261995400
H         0.75668409606698       2.09335796076131       1.28852863452940
H         2.10299172354960       1.12912062643694       0.65655558386692
H         2.30001248544127      -1.06944102243745      -0.59424106244269
H         0.91640395467712      -1.90224887058527      -1.34295169238834
H         2.41898052752721       2.79770247869554      -1.21705201681733
H         1.07843412702429       3.77226557097903      -0.56431421819916
H         2.57278991673805       3.56538600549038       0.37999455611168
H         2.40645243639874      -2.96592479793504       1.13052531363502
H         1.01909177072143      -3.72739329379733       0.30512361505845
H         2.59674810256586      -3.56545091925020      -0.53762443898511
Cl       -1.90380341096820      -3.31270960966241       0.80015768404512
