23
C7H8F3NO3S optimized with ADF in AMS.
N         0.38886553198129      -1.06652498969791       0.50820991822456
C         0.42422033737290      -0.46756303334394      -0.71121041710547
C         1.47520118534799      -1.06714199148792       1.30601175052399
C        -0.84812028034736      -1.75984150672974       0.91323096345144
C         1.53666740690339       0.22623978348329      -1.12022770908779
C         2.59888417681414      -0.32664584702757       0.95766668821835
C         2.63753753267610       0.32573649485587      -0.25955343203808
H        -0.47107074552596      -0.57662069380402      -1.31994491702090
H         1.39639619785865      -1.64514785655472       2.22316737856667
H        -0.74762573859130      -2.08688708071267       1.95053861685621
H        -1.68492208236890      -1.05862367207431       0.79754369602682
H        -0.97369731851853      -2.64965643266899       0.28627446203269
H         1.54163417925469       0.68879957255192      -2.10664105581380
H         3.45326492212462      -0.33243459509795       1.63299031963414
H         3.52384176364898       0.88455339294143      -0.56147812947012
S         1.97348494765974      -4.28488790083338       0.72441810810966
O         2.70423991029342      -5.51737478932579       1.00031723142992
O         2.80464455534791      -3.07749598582652       0.47211628738163
O         0.78958602715614      -4.00425416591224       1.56595488493594
C         1.20683834461925      -4.59635259610104      -0.96549741309720
F         0.28572227185377      -5.59149102329850      -0.92182970287522
F         2.14031604961491      -4.92007760963035      -1.89024034139803
F         0.55305189242415      -3.46735138530495      -1.42932881988542
