52
C16H16F18NP optimized with DFTB in AMS.
N         3.30468713205490      -1.51660264869019       0.19255992103437
C         1.33720010895767      -0.05365683918590       0.07139217550316
C         0.65505374535543       1.04737398579408      -0.74609943035286
C         2.63700282804889      -0.48498447381509      -0.60906334120093
C        -0.64787102653658       1.50194114011050      -0.08094934348203
C        -1.32740128141044       2.60229985780910      -0.89348376698078
C         3.22007386000058      -2.80340742547392      -0.17118089512482
C         4.04557076314071      -1.13690039322629       1.24592236432174
C         3.88590683672733      -3.77698653474922       0.54432436836463
C         4.71473711966430      -2.07450672879644       2.00259994744416
C         4.64415446318325      -3.41567764108876       1.64904028421997
H         0.67326080664694      -0.91890043642264       0.16603975820575
H         1.55991611222944       0.31285815915080       1.07840088176684
H         0.44322947479515       0.67258784306424      -1.75275330437734
H         1.33555315958424       1.89945020755366      -0.84249561165752
H         2.44190805281214      -0.89637879291393      -1.60070128379342
H         3.32618676612756       0.35546110199344      -0.70497199948594
H        -0.43109114247037       1.87217802623624       0.92668405793495
H        -1.32487578780903       0.64632384624757       0.01496246920792
H        -0.67351516485670       3.47051321375917      -0.98240225794837
H        -2.25040972743071       2.91053585382299      -0.40271462918052
H        -1.56825775341126       2.24442333832418      -1.89515775704834
H         2.63894943562786      -3.02960778948002      -1.05652858015931
H         4.12025881354525      -0.07359162096175       1.43788387367005
H         3.82705322448478      -4.80712280168337       0.21747189182750
H         5.32373088051815      -1.74754233931673       2.83492750344267
H         5.19236847412993      -4.16215430885952       2.20996235840852
P         7.18728702427684      -1.02520557857181      -1.43527895385161
F         7.32791768453531      -2.67603352569757      -1.16885254814276
F         8.74960570050048      -0.95916497066987      -1.98457664049847
F         5.55112827547508      -1.03118395744288      -0.86490395161114
C         6.48745592077725      -1.57790839671840      -3.19268508416540
C         7.70843385322550      -0.84320376919910       0.46037681831851
C         7.06295854477380       0.95272934669058      -1.74418514414281
C         5.19360985100332      -2.44780241842654      -3.20106814314126
C         9.21059496848328      -0.76881627522437       0.83685258443713
C         5.68946150494471       1.65963383280405      -1.60516094219916
F         7.42969916795168      -2.29404907598118      -3.82132259401007
F         6.18210060306177      -0.53185557950026      -3.98416379878642
F         7.23723692058309      -1.91911058924382       1.13810622725655
F         7.08612466140206       0.21666537244003       1.01951092832917
F         7.52686420768347       1.25249300731108      -2.96917752210924
F         7.88769519569262       1.56478063086367      -0.87045125585071
F         5.02378867347984      -3.02161909852564      -4.38937623867765
F         4.10975559551280      -1.68597098367243      -2.97120250990922
F         5.17528750697021      -3.41749273219428      -2.28423975113546
F         9.82866567177968      -1.88714588373119       0.46996529455098
F         9.83031318756148       0.26051054170554       0.27763767975986
F         9.33480426263039      -0.65023987930555       2.16436393580467
F         4.76703348761199       1.10328971182933      -2.39709076054277
F         5.76463634898740       2.94919481208031      -1.91598546628902
F         5.22063462758654       1.57602304897809      -0.34978636875378
