24
C6H8F2N2O4S2 optimized with ForceField in AMS.
N        -0.71437188644834       0.03868283211268      -0.14716955611597
C        -0.03609383560076       1.22132469617292      -0.03146711143173
C        -0.03987958916500      -1.13120106065215      -0.35924481305080
C        -2.17418228888905       0.00741719441045      -0.03852239227791
C         1.35789758434884       1.24907820833248      -0.11988305122780
C         1.35370353489161      -1.13851042657602      -0.45576871300612
C         2.05424064371510       0.06037480395180      -0.33285997503650
H        -0.56717129786284       2.15073762882950       0.13526615340856
H        -0.57886871120570      -2.06683236203480      -0.45301113262923
H        -2.47130015765317      -0.62541594554386       0.82486355545459
H        -2.59710899806426       1.02419384710509       0.11277349266265
H        -2.61122007845164      -0.41551572462909      -0.96829402498214
H         1.89257995927679       2.18491926602582      -0.02149271914836
H         1.88484541776239      -2.06706548733806      -0.62009395092206
H         3.13405109347145       0.06840647907415      -0.40309327144515
N         0.88800331673827      -1.17649928321998       5.15991581934410
S         0.36997614944590      -1.06756680014155       3.61075942313098
S         1.22331733364611      -2.62364355075977       5.84658592879726
F        -1.26948109002912      -1.40138660251240       3.55126426693526
F         2.55617355968372      -3.30138062397530       5.09297898589516
O         0.60996855289766       0.32387593787541       3.09880875603351
O         1.10160768366880      -2.05849313325385       2.74976702011863
O         0.05001466930228      -3.54819824835414       5.68271914705902
O         1.51663099692097      -2.43350573189932       7.30767891523404
