48
C12H26F2N2O4S2 optimized with DFTB in AMS.
N         0.69713710139401      -0.83362387730256      -0.60047164628659
C         1.62667220461563      -0.48053232459603      -1.72425172234819
C         1.43452703130736      -1.93012857162092       0.11518965447646
C         0.52834978506793       0.32698216238899       0.33596567760376
C        -0.60947599365123      -1.31895642347456      -1.15713765435693
C         3.03203357681186      -0.58238537180959      -1.13994090410834
C         2.90810457901288      -1.54064965414699       0.05413384114378
C        -0.29841711265295       1.48641761297513      -0.21722995462712
C        -1.58044344095267      -1.82920116060410      -0.09724798888007
C        -0.21797404630600       2.67594928374174       0.74810842595933
C        -2.90641452954348      -2.21511810546284      -0.76526990722450
C        -1.06143544743752       3.84639540855858       0.24765748682704
C        -3.88558861760926      -2.78752589694357       0.25601226221670
H         1.38395484438138       0.50833682692335      -2.11122718301663
H         1.48030939644925      -1.22170232118407      -2.51214045150977
H         1.25622983356415      -2.85658972955151      -0.43071999588992
H         1.05201554090538      -2.02762029079147       1.13076337788339
H         0.06194796378099      -0.05468329525990       1.24711651014976
H         1.53233182097073       0.67550101361767       0.58887484175407
H        -1.04594089209641      -0.49420096204110      -1.72507906973552
H        -0.36823623028397      -2.12343406941985      -1.85505515599255
H         3.71298429322096      -0.97545494645819      -1.89602210416551
H         3.39725771783972       0.39638375883343      -0.82109442232469
H         3.22657580862516      -1.05511910853160       0.97918217315474
H         3.51350597888936      -2.43644843110946      -0.09240556914387
H         0.07265010075469       1.79357952365555      -1.19849918449334
H        -1.34389182360229       1.18801382574292      -0.32829564638067
H        -1.15611370650786      -2.70714312875511       0.39616119164619
H        -1.76626542035248      -1.06429416033615       0.66280422472521
H         0.82534295923828       2.99257346211750       0.84906135946754
H        -0.57199691057400       2.36513297016377       1.73649696212941
H        -3.34359070698148      -1.33099194090645      -1.24185329612327
H        -2.71489870890121      -2.95918573783329      -1.54286936528295
H        -2.10817022429467       3.55340947145560       0.16013203635946
H        -0.71025764901773       4.18055166433343      -0.72918457686340
H        -0.99013149239185       4.67895518472323       0.94696475246148
H        -4.09934333261302      -2.05763905012275       1.03875072973456
H        -3.47130860537914      -3.68381127818323       0.71862096010152
H        -4.82000429914608      -3.05219358704314      -0.23817206904204
N         0.89715758887983      -3.57119412995556      -3.12749362645943
S        -0.11264851088804      -4.67528079265513      -2.58761282812366
S         2.44729416200440      -3.82678033570418      -2.86318720168657
F        -0.07796649108995      -4.41667852932959      -0.95309883741298
F         2.83863204819849      -5.06251829523617      -3.80328025300366
O        -1.42877981349419      -4.25034530725149      -2.94252445861617
O         0.25675844808072      -6.03922443239994      -2.72971267944019
O         2.79556340652254      -4.24446308924981      -1.53669034770722
O         3.14888093445175      -2.70466021186056      -3.41153384674868
