29
C7H13F6N2P optimized with ADF in AMS.
N         1.72011307966381      -0.33792975468267       0.96029936324216
N        -0.03761117834405      -1.10905886847587      -0.04796751546162
C         2.99304374746989       0.36371918827991       1.17974411671245
C         2.79037162454643       1.77698128543095       1.72030147309945
C         1.02329026571576      -0.30333437064796      -0.18089154603083
C         1.09230488714863      -1.19141175715620       1.84472639278475
C        -0.01396391420437      -1.67813483419091       1.21072242923044
C         2.05628621731680       2.69977769258164       0.75124484177970
C        -0.97867545940488      -1.41416647717686      -1.12399347482990
H         3.51004479096026       0.36500627484289       0.20776545932557
H         3.57485079220440      -0.25781494087143       1.87631337514403
H         2.26024856522661       1.73086158937316       2.68878013776329
H         3.79706543040892       2.17873108114803       1.92988655578058
H         1.31809719876729       0.21326958821005      -1.08825500050475
H         1.49733035939742      -1.39703892468128       2.82769078936211
H        -0.76866373134866      -2.38412671869166       1.53469627135631
H         1.02737030147713       2.35510438845293       0.56311709707651
H         2.58194182549446       2.75441150803682      -0.21509453164845
H         1.98700048961664       3.71822806435795       1.16267306180929
H        -1.75422633801557      -0.63846657573667      -1.17447674264685
H        -0.41118846590053      -1.46289743787442      -2.06227622433181
H        -1.43545421629310      -2.38756662611864      -0.91576033942675
P         3.05703692938890      -1.26256432814875      -2.86412766163848
F         3.30730030198396       0.16137758207715      -1.98205005632023
F         4.60973795506461      -1.69786417163594      -2.59924596866787
F         2.60566512502889      -2.01273674615479      -1.43294489271585
F         2.73448849940539      -2.63865467168798      -3.68391368053404
F         1.44921786226201      -0.77041877202673      -3.05430803039660
F         3.45392782956294      -0.47228119273271      -4.23643113781261
