38
C10H20F3NO3S optimized with DFTB in AMS.
C         2.70676771932848       0.51643876853976       1.76940266002250
C         1.81811777086293       1.37442967733022       0.87080344710121
H         1.58494161607253      -0.91120120846517      -0.57888212495341
H         0.41057004782075      -1.58769107095915       0.58804108774794
H         3.12167750460034      -1.52646280847206       1.10006735669888
H         1.90739071961698      -1.41632051295001       2.38284317208765
H         2.54854527130118       0.76270717107147       2.82093459627475
H         3.75752086781259       0.69163625041034       1.53281179004621
H         1.50994313589070       2.31614245830358       1.32614148691621
H         2.30347658735745       1.57665195617562      -0.08747618249015
H        -1.12207576629032      -0.10087031622559       1.64403269874965
C        -0.30620253151660       0.60298043808204       1.77370560041182
H         0.23946046494776       0.33506950078758       2.67292341395559
H        -0.69167480401558       1.61721767732492       1.85897552142551
C        -0.08412755337449       1.02583516039656      -0.63704635423090
H        -0.13192781232725       2.11509780279862      -0.54632674697494
H         0.56171685520211       0.77752878367579      -1.48378291072981
H        -2.16802505630356       0.84032227231213      -0.08193736888605
H        -3.10563094552663      -2.44763685779398      -1.71282538852616
C        -1.63655208356785      -1.01422499683138      -1.05848823891270
H        -0.86496623527798      -1.37387560399505      -1.74713866469107
H        -1.50511968229987      -1.52022276856650      -0.09874519590534
C        -3.01800417844977      -1.36678730716240      -1.60807272288372
H        -3.17481030307348      -0.90667284324217      -2.58464794481385
N         0.60694419625364       0.53311006350822       0.60064080906987
C         1.18538682616025      -0.83945922598346       0.43528664082778
C         2.28948155267320      -0.93370142445640       1.48206811794349
H        -3.79631304270651      -1.01941712782870      -0.92828539367343
C        -1.50176622441232       0.50231880958118      -0.87942137021717
H        -1.83032873098472       0.99594377705586      -1.80099505661033
S        -1.16593845983693      -2.16213928339260       3.56949819079129
O        -0.42357824886649      -2.34597685977310       2.32042913237519
O        -1.92975260462310      -3.29802917814890       4.00372671516638
O        -1.82919268259797      -0.87199747438452       3.65144465504198
C         0.21985975807209      -1.98838701024949       4.79602771542713
F         0.97655362452339      -0.92756693696460       4.43220178208935
F         1.01867613794573      -3.04913741527718       4.80339451746685
F        -0.20279920249066      -1.76924770003149       6.03130168946184
