34
C10H22ClN optimized with ForceField in AMS.
N        -0.50988026361261       0.01162319657806       0.00738880237937
C        -1.46331389456802      -0.51571780973560      -1.01749366976240
C        -1.38080143438965       0.57161133313130       1.08673957851702
C        -2.85194319438549      -0.01689922781832      -0.66940984033194
C        -2.80383321621225       0.11830141537502       0.82520754057589
C         0.32308081883875       1.09756629995694      -0.60562101064714
C         0.32014415330164      -1.10420059779951       0.56911903895414
C         1.35559746041405       1.73847281225350       0.35131051836269
C         1.26926310422141      -1.77762369489901      -0.45058621475860
C         2.06284893722071       2.91282770705101      -0.32154836881701
C         1.96360661948130      -2.99102356099881       0.16414750946081
H        -1.20387433116711      -0.21598695503271      -2.05878484328281
H        -1.51341265142369      -1.62878744224526      -1.01219890404601
H        -1.06775807634473       0.26562230868850       2.11126292864602
H        -1.39483472658672       1.68578591221061       1.07986521855324
H        -3.02301736634739       0.98026008285062      -1.13360469269786
H        -3.64457476277031      -0.72517026443183      -0.99468343788226
H        -2.97855831571133      -0.87323402948687       1.29993742852756
H        -3.55200016323368       0.85146254839623       1.19725856830580
H         0.86462571971343       0.71614735009726      -1.49920265396490
H        -0.34424654086936       1.90400636706691      -0.99034464253689
H         0.92781080587347      -0.74395067107611       1.42764737083438
H        -0.35087086786229      -1.88705848431508       0.99404183869167
H         0.86454174638620       2.10980516201124       1.27464450972140
H         2.13108090272281       0.99952021648637       0.63947171680856
H         2.05819819020188      -1.06817854932763      -0.77421989054953
H         0.71123568573274      -2.11446547406810      -1.34850740460232
H         2.60247155436070       2.56709946742745      -1.22890468475401
H         1.32845206096081       3.69547916490249      -0.60788290229664
H         2.79886971077725       3.35758028773466       0.38073941041056
H         2.61415821009489      -2.67481478275936       1.00669017241249
H         1.21473340309826      -3.72397854942269       0.53233797128700
H         2.59494345061902      -3.48705065685097      -0.60293950541723
Cl        2.20177577916528      -1.90489445075033       3.99441973879893
