50
C14H15F18N2P optimized with DFTB in AMS.
H         1.99240222256920       1.91511929290006      -5.18796823207083
H         0.35892756296086       1.23300706347967      -5.01075403719482
H         1.74386542379665       0.15244846027048      -5.34019812187984
C         1.41791720096144       1.05902950300696      -4.83180035232601
H         3.34780760516934       0.52935691309900      -0.66809216915050
H         3.68674677130749       0.29153662271127      -3.40909190194672
H        -0.22737510719837       1.62786596531478      -2.60913303674561
N         1.63727804408874       0.91600550537937      -3.40218540454411
C         0.77130799052975       1.25909294284015      -2.45149213883551
N         1.37770736640833       1.10978458468621      -1.27617453872115
C         2.66123410770794       0.68584965357919      -1.48120040431252
C         2.82778499153521       0.56990107336774      -2.82445620609615
C         0.77470219925406       1.37190785466379       0.02535867507911
H         1.55229939468259       1.77819509030244       0.67598325324170
H        -0.00287450785958       2.12656860828704      -0.11157980658623
C         0.19194511109414       0.08075808915395       0.60366307655832
H         0.98593332087708      -0.66798733874893       0.68815422105956
H        -0.56765619562385      -0.30989716334379      -0.08108887425681
C        -0.42815660236809       0.34412938874683       1.97950978271817
H         0.34010593868338       0.73720436676893       2.65301018689743
H        -1.21093010235609       1.10345733805399       1.88406875431185
C        -1.02287786006364      -0.93171517837147       2.57140237841917
H        -0.25251547396627      -1.69497883362748       2.68793400272547
H        -1.80737617627639      -1.32481892955293       1.92360558092065
H        -1.45326861192959      -0.71957557003453       3.54972091760797
P         2.67993588743399       4.99841691155996      -2.94083784794271
F         3.33910886947397       5.26519214687055      -4.45447832935442
F         2.31663371858519       3.38912549834167      -3.40901906841530
F         3.00239688145179       6.55320178139805      -2.43412734154203
C         4.45658257132042       4.42506569982042      -2.34853610638876
C         0.99301417468771       5.61379522123044      -3.73489859796170
C         1.85119333621318       4.52100444233840      -1.16712112826514
C         5.68343040404611       4.83740289132151      -3.20471194994142
C         0.22904933659449       4.62875395079149      -4.66017285682659
C         1.62695307050047       5.53155284998731      -0.01266462292751
F         4.53060961417267       3.07636511567480      -2.24670233425399
F         4.66423778668407       4.92193730467520      -1.11590735214623
F         1.25010290392089       6.69964107840911      -4.47893863390164
F         0.11609910519481       5.99139277303634      -2.78567915478302
F         2.57744963122834       3.51794026439398      -0.61144117314686
F         0.63186516826583       3.96920585614502      -1.42003184942867
F         6.80967003146494       4.56033240332305      -2.53977481728852
F         5.68513332507489       6.13240158770432      -3.48640425756660
F         5.71525673748333       4.14767924487374      -4.34457443260797
F        -0.80835904427312       5.22366660100236      -5.24161177792557
F         1.00730704404684       4.13516447496663      -5.62289459658146
F        -0.25491248088429       3.57964635067062      -3.96894133526888
F         2.77376228382876       6.03439177469924       0.42291481450770
F         1.04652288460530       4.88895403594993       1.01555862055513
F         0.83151388739510       6.53241880188320      -0.36177398747041
