50
C14H15F18N2P optimized with ForceField in AMS.
H         0.52077113867167      -0.47489810296004      -4.93074450185805
H        -1.15814107019080      -0.64007935793079      -4.28240495353978
H        -0.02006458308505      -2.04058513235258      -4.19935123171060
C        -0.09763187949313      -0.93502110115824      -4.13182039435842
H         2.47481864669984      -0.11850690727281      -0.36557924518266
H         2.41164200267567      -1.21149200949623      -2.80516440403112
H        -1.35298066741095       0.49856472802688      -2.00884226868087
N         0.37623077433522      -0.49000431477033      -2.82789231984450
C        -0.32110987223202       0.18826459256417      -1.89631532244747
N         0.42702763784159       0.41757559380689      -0.79940159875675
C         1.63475559456970      -0.12893938790653      -1.04805892873135
C         1.60280617318644      -0.69187699916181      -2.30796714640125
C         0.01232384458584       1.11320978233087       0.41586717740401
H         0.78562078440144       1.86230204015048       0.69389713356697
H        -0.94130446194717       1.65535525016675       0.22988440215068
C        -0.18983664449101       0.11132705970959       1.55560396274962
H         0.76241294625082      -0.43125086067657       1.74466360683674
H        -0.96253330725864      -0.62874996472720       1.25092894155499
C        -0.63449301394578       0.81910433573410       2.84009816198879
H         0.16373494225522       1.51469932869609       3.17916037036937
H        -1.55732644830239       1.40836554935226       2.64627978457362
C        -0.92146341330688      -0.18743659459999       3.94905661164300
H        -0.01749531390130      -0.79603442621722       4.16524988791597
H        -1.75291585967842      -0.85749893116388       3.64565375689265
H        -1.21919773456453       0.35032804893307       4.87366259390594
P        -2.89351676797578      -7.26739856476530       4.57852685819063
F        -1.47228643590697      -7.50430607758732       5.52207735938615
F        -2.50445416089984      -6.87856626697588       2.94496944257807
F        -3.50720069953919      -7.92769888257831       6.04412086893218
C        -2.27588643845205      -8.96805314755467       3.88161321840889
C        -2.24034294201401      -5.50564185116303       5.04701187047561
C        -4.79151566551747      -6.96912016432274       4.37017073280881
C        -2.15726356250974     -10.14921211392048       4.88143183649018
C        -2.97012017722909      -4.29477387304848       4.42928051795032
C        -5.67093685849144      -8.19445489609869       4.05852789329145
F        -1.01238254822426      -8.79686512220323       3.32928432902970
F        -3.10436912442633      -9.37873009368811       2.85646871755264
F        -0.91094551508772      -5.38071788848441       4.65302640373335
F        -2.30178523393086      -5.35438719904536       6.42554483667025
F        -4.98851350160145      -6.09014666618026       3.32027617260105
F        -5.29901821391441      -6.36956275286397       5.51449318997379
F        -1.81324653173335     -11.29090536129875       4.17922619526840
F        -3.34449570819950     -10.40229298056138       5.53408919949932
F        -1.16781135057006      -9.92404608973222       5.82145986031659
F        -2.26768167164573      -3.14817576762250       4.75241397554188
F        -3.02315363744633      -4.38253940384531       3.05069501119849
F        -4.24404669257601      -4.14955411135064       4.94055250394962
F        -5.45127709241702      -8.64479583665845       2.77133145647749
F        -7.00065088061847      -7.81979224677985       4.14328314693028
F        -5.46690713773827      -9.21889618794760       4.95563910023535
