35
C9H20BF4N optimized with DFTB in AMS.
C         2.93626098875912       0.80000623765487       1.68113446563642
C         1.76367857899557       1.37313165888995       0.88353562183599
H         2.27627112826586      -0.69404959795640      -0.75999635522664
H         1.43451073561650      -1.85761532580259       0.30681587827710
H         3.97374834332132      -0.95124041470862       0.87213714273564
H         2.81254521797440      -1.32898425061923       2.15327665764977
H         2.77007012942962       0.91630463518681       2.75372417484312
H         3.85632762251184       1.32670932899759       1.42147246721884
H         1.17884560976434       2.11353074192042       1.43025843785851
H         2.10532123933871       1.80695535505346      -0.05935345612851
H        -0.52412779529763      -1.03035156282969       1.53273357520155
C         0.08307028269949      -0.15624999384775       1.75406779927353
H         0.74171924942467      -0.39079721772047       2.58502905389361
H        -0.55045562702260       0.69459247430840       1.99994214237064
C         0.01687860690881       0.48141007964395      -0.61124436680755
H        -0.63946408547583       1.30586100099727      -0.31657395218850
H         0.66523940792596       0.82610003661424      -1.42268071168531
H        -0.14305331688364      -1.56955354298771      -1.28310370456976
H        -2.96919669674417      -1.28834772382171      -3.71270510152109
C        -1.58860214487736      -0.36180586509908      -2.33604328546229
H        -2.25120465898282       0.48540492945759      -2.12613707720354
H        -0.89443879626393      -0.05611876088130      -3.12706620689038
C        -2.41549006078227      -1.55447690758630      -2.81228877207422
H        -3.12450076736518      -1.85708828482358      -2.04150521298736
N         0.90381677829729       0.19145797533455       0.56120109971741
C         1.90582389617946      -0.87750509988529       0.25144933828520
C         3.00191247331750      -0.68649360125541       1.29080744666983
H        -1.76634216987498      -2.40083835346012      -3.03738076268237
C        -0.80155187452680      -0.72413431595234      -1.07235110571634
H        -1.49755618551810      -1.03778490755772      -0.29179150148929
B        -0.14417890298802      -3.49355659545288       1.20922866134517
F        -1.34258393812800      -2.74061447693099       1.22805194388352
F        -0.34027430643491      -4.78054948636733       1.60773677929734
F         0.78632200309323      -2.81940965290033       2.05872930827675
F         0.37789294004258      -3.41752484681229      -0.10637229333677
