34
C10H21NO2 optimized with DFTB in AMS.
N        -0.07363154660530      -0.10357661721629       0.24514183876996
C         0.96498889343521      -0.81831031363601      -0.57549578782108
C         0.65480078648011       0.44915990006083       1.45423170442432
C         2.28760545074016      -0.16992522797971      -0.19705854428647
C         2.12051534740087       0.06777642832762       1.30101420905300
C        -1.13408014387505      -1.05753184989249       0.71158815804824
C        -0.64757771652556       1.01911485926293      -0.57882317363349
C        -1.95318463115083      -1.66791118067763      -0.41280645470670
C        -1.76143692385611       1.79552021935609       0.10361030470692
H         0.72326992864559      -0.73780826157299      -1.63528993555629
H         0.96343571032175      -1.87127693463705      -0.28442521072735
H         0.19397477262425       0.03968014794855       2.35327430801681
H         0.51682400976685       1.53044334227393       1.48414580239491
H         2.42155241431008       0.77538996843453      -0.72922176180543
H         3.12750080731333      -0.82651802195038      -0.42740772665472
H         2.34244087433115      -0.84950556885136       1.85325675735237
H         2.77201919011095       0.86157483874000       1.66753524732841
H        -0.61741598860249      -1.84158333673879       1.27040222719826
H        -1.76699431833882      -0.50170890892220       1.41540838850405
H         0.18865520218873       1.68428393296220      -0.81028762501664
H        -1.00618952162120       0.58122362937361      -1.51483394546318
H        -2.61175005146693      -2.41666069815346       0.02684891246187
H        -2.57300731325473      -0.92377877330662      -0.91018451450459
H        -1.32356838601480      -2.15797176562822      -1.15572849923071
H        -2.03497267301540       2.62308045535013      -0.55072418442242
H        -2.64134126782214       1.17672309209600       0.26684694180246
H        -1.43398745117270       2.19905538257403       1.06370595652150
C        -2.16655107517455       2.05565582212880       4.88249334297903
C        -1.52786573156741       1.62038372481038       3.54204509524146
O        -1.82295381052116       0.47452416732180       3.12980948335117
O        -0.78295895592299       2.44711203808536       2.97703894740150
H        -3.15079853477917       2.47343257131360       4.67104081739267
H        -2.28320417252778       1.19388597309492       5.53725906808601
H        -1.55268013075393       2.81608134084787       5.36137687559418
