51
C15H29BF4N2 optimized with ADF in AMS.
N         3.20665313207931       0.63398631545496      -0.27885783096706
N         2.94488240503405      -1.51426616715673      -0.28624886958304
C         1.87146455893530       2.70591650865079      -0.13870289004912
C         3.19388665792466       2.02037529026443       0.20104096175255
C         1.18681962930025      -2.94990361047307       0.68506169330810
C         2.63010082094969      -2.86604768616358       0.19438140508179
C         0.64688448969241       2.02482412341907       0.47104998158005
C         0.14918294946144      -2.54726193775032      -0.36138262010992
C        -0.66252884304688       2.73635613127808       0.13205229727271
C        -1.27464857783352      -2.52969956984244       0.19386784814799
C         2.87599455707915      -0.41738842444467       0.47698785257179
C         3.49950745923985       0.20235826808879      -1.55404171107031
C         3.33587808945437      -1.15447228038740      -1.55898023652491
C        -1.88778776830352       2.01497009486974       0.69243686145498
C        -2.30587339380016      -2.05362553209305      -0.82735844281511
C        -3.20800009758024       2.69103876032375       0.33192011990660
C        -3.72425674758441      -1.98789941449606      -0.26716116919847
H         1.94301766030645       3.74597508050198       0.22520047672136
H         1.75455389756007       2.76396564594030      -1.23648161067054
H         1.07990075071319      -2.31626659621940       1.58311683307714
H         1.01217518768612      -3.98653557397668       1.02229304950226
H         4.05260495226649       2.52930240933876      -0.25943886955511
H         3.37515358860131       1.96454107690066       1.28513518994247
H         3.34720038935842      -3.09242362471104       0.99822049987506
H         2.80307655242256      -3.54513383950884      -0.65370790122064
H         0.76661498686141       1.96295695794167       1.56853024901656
H         0.57967890267470       0.98460266136163       0.10376946847409
H         0.20326392685981      -3.23429361446809      -1.22748296441830
H         0.38555847959875      -1.53987520014571      -0.75086684327845
H        -0.63263927972051       3.77161094053638       0.52036807433458
H        -0.75835679316470       2.81924545037803      -0.96723959308669
H        -1.30733515751965      -1.86748744172472       1.07947734673589
H        -1.54634524828394      -3.54028881223967       0.55243363915964
H         2.68442080077474      -0.36854035159753       1.54687669704614
H         3.81969288013424       0.88358670813674      -2.33232738876052
H         3.48587713448159      -1.88865478425489      -2.33977055221027
H        -1.89401450351948       0.97551459550303       0.31632596156636
H        -1.79446654505636       1.94636290438721       1.79174721831917
H        -2.28420601601734      -2.72392982834349      -1.70668309599033
H        -2.00968982159839      -1.05326768651216      -1.19447473138725
H        -3.24633610561484       3.72234222904321       0.71914757033261
H        -3.34464277296215       2.74003865254448      -0.76086151727562
H        -4.06347521407119       2.14176392757281       0.75268424785134
H        -4.43741532102851      -1.64068772504588      -1.03008064879268
H        -3.78072258860552      -1.29421452029809       0.58769047027122
H        -4.06002136143982      -2.97765826959230       0.08349357992019
B         4.86785260202108      -0.21444039645334       2.77736103521251
F         5.46525591168450       0.37039986166363       1.62584092867859
F         4.49838886530118      -1.57053624800336       2.46732572190570
F         3.62442869106770       0.50603558744113       3.03848946213678
F         5.70166056612627      -0.15477288103877       3.88828943070810
