32
C10H18N2O2 optimized with ADF in AMS.
H         0.39744127581892      -0.56949012852682      -4.86214701246312
H        -1.21334504830125      -0.87968055708794      -4.14522553753655
H         0.03973756288588      -2.15544378727771      -4.09522438330018
C        -0.13946044869988      -1.07336659257697      -4.04765423304355
H         2.52669944461318       0.14765196086954      -0.30222829373149
H         2.41176397335932      -1.11004055754927      -2.87348788186560
H        -1.47747560139116       0.28737970668402      -1.93243821029841
N         0.32856080433387      -0.56156134603400      -2.76910411296430
C        -0.41893427527353       0.07538161975413      -1.85009821471529
N         0.37858734340315       0.40283125807004      -0.82597403489796
C         1.66878571157165      -0.03073895935508      -1.06805188675624
C         1.62702976257591      -0.63641814956387      -2.29490298226821
C        -0.03747626574608       1.06221430544332       0.42022306009351
H         0.81919134379588       1.69953409299019       0.73112213800587
H        -0.93798121575824       1.65740073466519       0.19952035596813
C        -0.26907522889555       0.04482350133337       1.53023551190742
H         0.66236844066093      -0.53807565044913       1.64579258202595
H        -1.08227189584293      -0.65725298582323       1.26279334763819
C        -0.56954939930116       0.75431570432475       2.84837425450768
H         0.27399090972526       1.43474871056428       3.05799883201194
H        -1.47995593629653       1.37458791006082       2.74325017608850
C        -0.74542859168149      -0.22947798204684       4.00113752406180
H         0.16494406486962      -0.83672035546359       4.13025507197641
H        -1.58843827726065      -0.91701408814722       3.82057590361083
H        -0.93535635574283       0.29859776954527       4.94748673782430
C         4.63501425363407       1.33456284099854       2.63978733258149
C         3.49110838440849       1.15164989067288       1.64049775639831
O         3.70817272391929       0.29211456430518       0.71787121793082
O         2.45702868151689       1.86182759630279       1.78944859158403
H         5.11145437534146       0.36762266486140       2.85486291513157
H         5.39867353415556       1.98365273954729       2.18234554146991
H         4.28374092010197       1.80864363000866       3.56579042082424
