43
C13H10F18NP optimized with DFTB in AMS.
N         1.47986417291064      -0.96840828773101      -1.33256481989751
C         2.13315159772671      -0.02175446648615      -0.41885130727325
C         1.24114461673345      -0.59294303143123      -2.59838733159125
C         1.15030054565199      -2.19202929174680      -0.89490905825698
C         1.08122578770674       0.86062140031465       0.24016376903936
C         0.61719975685518      -1.45454357052141      -3.47658805834558
C         0.51821137152782      -3.08695802257827      -1.73257362508856
C         0.24208107007841      -2.71851797919187      -3.04322844685425
H         2.68422009877743      -0.59572401385395       0.32756812172928
H         2.83824961946754       0.57186504199087      -1.00266604581120
H         1.57545969040257       0.39467666161639      -2.88934494968360
H         1.41872787733182      -2.43887610382163       0.12482252309417
H         0.53231183388603       1.42823723792424      -0.51079658870104
H         1.57868838631410       1.55627525463636       0.91390649936852
H         0.37704931779517       0.25627264285108       0.81165502162127
H         0.45003429229406      -1.14007807136864      -4.49863320501516
H         0.26996956746621      -4.07394046407298      -1.36452776287484
H        -0.23581589927183      -3.41481503304633      -3.72123024710294
P         5.25039952119600      -1.53488781383680      -2.95509354484457
F         5.18944710187959      -1.24928451042473      -4.60193589205295
F         3.72898085555107      -0.72925827734152      -2.79542981919935
F         6.71029333375444      -2.32875406999753      -3.05523417602871
C         4.32364704560544      -3.22678256233859      -3.31391805077107
C         6.19336134252550       0.17857813151780      -2.83691249640659
C         5.13791002928397      -1.81434679356700      -0.96248545343615
C         4.35021332471653      -3.79429205649872      -4.75830399459399
C         5.35406616764348       1.47905043803604      -2.95647417316734
C         6.25326525594551      -2.50528759605298      -0.13461685496902
F         3.00358617255335      -3.14868149014803      -3.00399805659299
F         4.84713649530168      -4.17219371309002      -2.51601289401331
F         7.09241998966152       0.21974835572760      -3.83162426390227
F         6.88316776279644       0.26779073966224      -1.68589460265084
F         3.99520371105927      -2.50160951601493      -0.68822640096026
F         4.95215095274443      -0.59800377531701      -0.39124018394675
F         3.88166825902122      -5.04795516108129      -4.75475487742027
F         5.56640252052230      -3.81451594892552      -5.27874116755346
F         3.55011290127090      -3.07911054589910      -5.55179634899009
F         6.14339517408844       2.54905720553543      -3.00406569110835
F         4.59517422294241       1.48021208560976      -4.04854956381191
F         4.53958256665667       1.63207952963562      -1.89984666615632
F         6.41017900942492      -3.77493818370931      -0.48828660734287
F         5.92082050094030      -2.48339952559704       1.16298207220390
F         7.41734036026059      -1.88440597436773      -0.26750743084090
