44
C12H24F3NO3S optimized with DFTB in AMS.
N        -0.39904051035227       0.37756528186744       0.05390000988054
C        -1.46004668869708       0.44038723950294      -1.00418633674880
C        -0.64825830294086      -0.82709087314586       0.92507614213224
C         0.91298179514163       0.19189921219110      -0.66631699268685
C        -0.37514169044092       1.61664810031874       0.90701305602442
C        -2.87067788899692       0.46979057106487      -0.42910977915934
C        -2.05658810466279      -0.87907177231595       1.50234709532330
C        -3.12158237437535      -0.77832809470924       0.41496169463780
C         2.15168032395304       0.13803034167411       0.22457334276963
C        -0.16002210676613       2.91914288132691       0.15621026921909
C         3.39370240956988      -0.08975621983428      -0.64510647742795
C         4.65241922131129      -0.14087750656374       0.21849536409937
H        -1.33648115869943      -0.44947448045297      -1.62864028401321
H        -1.26977378663533       1.32264483872497      -1.61817525076541
H         0.07725289452613      -0.79510489999670       1.73957501240525
H        -0.46166444081309      -1.70719683936794       0.30277014348578
H         1.00274290900043       1.01265134983594      -1.38320571038869
H         0.82580414075960      -0.74085356426949      -1.23159207689135
H        -1.31482645323834       1.65710974025590       1.45685800063071
H         0.42390909022004       1.47416107295657       1.63288237159153
H        -3.56844762915157       0.50422173752073      -1.27024805794161
H        -3.02390418245199       1.37083747643517       0.16963284562074
H        -2.19163725691167      -0.08545606071790       2.23987929613225
H        -2.14885118328517      -1.83221979874290       2.02904256960428
H        -4.11253950651549      -0.72242928771623       0.87104569831893
H        -3.09041347934443      -1.66518296081429      -0.22728652324220
H         2.06805943062569      -0.67118710550510       0.95170255824805
H         2.27004186491294       1.07008021675878       0.78019015482417
H        -0.10259884789142       3.70713358696453       0.90741889410674
H         0.77277446574604       2.92140689925087      -0.40522657168199
H        -0.98395661996172       3.15081465075773      -0.51788444216543
H         3.48282760425232       0.72035185950872      -1.37740807868442
H         3.28757985056546      -1.03038189729332      -1.19665402337648
H         4.58158057455897      -0.94912180543137       0.94665291472456
H         4.78394666411886       0.79899777131916       0.75512238944749
H         5.52723161492069      -0.31080999404791      -0.40899942522438
S         0.52893442878409       0.62585391569863       4.15563768056202
O         1.39381566870380       0.12438643352024       3.08621987271958
O         0.64920027554570      -0.05456723301813       5.41481162924966
O        -0.83269098195771       0.88769904902114       3.70315033881532
C         1.20132849557801       2.33330399238448       4.42667309277818
F         1.12437840884181       3.01027772743647       3.26590219829515
F         2.47512264187228       2.31407424640029       4.79479974800950
F         0.50886749878097       3.00830432924690       5.33256170504186
