47
C13H26F3NO3S optimized with ADF in AMS.
N        -1.71203200131469      -0.04447801810381      -0.20037732235066
C        -1.76904345052552      -0.80346059445473      -1.52520514943073
C        -2.82614815143700      -0.67215161245027       0.65272515596477
C        -0.37380502498228      -0.24672690667380       0.47961855390954
C        -3.23310825207402      -1.14577594076712      -1.71723785968422
C        -3.70112797386510      -1.49840413184300      -0.29855912541425
C        -2.01314565412761       1.41530217078217      -0.47252131477784
C         0.81943952783456       0.21545697255481      -0.33341529385559
C        -1.89537819049415       2.33634687768354       0.72546466224421
C         2.10682355771156      -0.28250754756725       0.32900916260650
C         3.35674698045679       0.12365479853665      -0.44638744275847
C         4.63982194312661      -0.42901587975815       0.17079182297600
C         5.88940787972725      -0.02029963335553      -0.60352069314931
H        -1.15986065613694      -1.71038805360656      -1.39849771304318
H        -1.33280281564092      -0.17503186233616      -2.31143490778624
H        -3.36050257551656       0.14488292111402       1.15221294396914
H        -2.33871813378103      -1.31743166035817       1.39511275740118
H        -0.30897394989411      -1.33055482247917       0.66254742846393
H        -0.43186010558345       0.26488022116432       1.45224853708779
H        -3.32878818853279      -2.00629135535583      -2.39446803264440
H        -3.79484229670624      -0.29997889764108      -2.14551723806076
H        -4.77094523278056      -1.29819226305031      -0.14661485535131
H        -3.50372427486663      -2.56521811464490      -0.11644363262168
H        -1.32214886453356       1.73273911321795      -1.26640929668648
H        -3.03324782190120       1.43542873284087      -0.88394742645566
H         0.77180751363982      -0.22145897396461      -1.34445554608369
H         0.84671086468701       1.31550253884943      -0.43980987340684
H        -2.25417296707815       3.33178182927248       0.42183852025550
H        -2.50904898116070       2.01124003337331       1.57736585556657
H        -0.85594874343834       2.44650713851525       1.06186959947700
H         2.05128097439703      -1.38344480734006       0.39175111619573
H         2.17205552986504       0.10137255712379       1.36421388379168
H         3.42198625246598       1.22737826755093      -0.50344688040805
H         3.26956883838715      -0.24097698436004      -1.48697935690645
H         4.71996099426057      -0.08229435126117       1.21730719619007
H         4.57102852335050      -1.53073219649489       0.21366314012491
H         5.99277692233529       1.07674026340400      -0.63652978919218
H         6.79924480999881      -0.43226779097285      -0.14148005354316
H         5.84363477905685      -0.38361378061318      -1.64294781539570
S        -0.82924245190468      -3.98759006903785      -0.10066939432794
O        -1.26883256217551      -3.41015850072201       1.19165299459541
O         0.34865357136631      -3.30390739627211      -0.68279906262739
O        -1.91615328629590      -4.27061828797574      -1.05381783810458
C        -0.17934310971150      -5.68628584368196       0.36731122619259
F        -1.17360862285384      -6.45951585788300       0.87683115285591
F         0.80264560382803      -5.59598651817291       1.30442150155186
F         0.33600302711782      -6.32135508428533      -0.71723984445352
