38
C12H22N2O2 optimized with DFTB in AMS.
N         0.24935309750903      -1.59483719209144       0.28150493204363
N        -1.78085269281468      -0.94807407258917       0.14157449573763
C         1.60743307215547      -1.74321308336516       0.78371877059047
C         2.49592705466645      -0.59849980176838       0.28495001283445
C        -3.04367135098541      -0.28664780812997       0.44252526862969
C        -0.71059940465219      -0.93207434867147       0.93812917482539
C         2.04472346928653       0.75876190688202       0.83516201470023
C        -0.20804069460490      -2.02230284841003      -0.93868841943190
C        -1.49954994556499      -1.61359009230018      -1.02559353357379
C        -3.21919766765072       0.95700957327665      -0.43383909928491
C         3.01430470358707       1.86930438593890       0.43929505402658
C        -2.12951277414801       1.99376149878892      -0.16966603907817
H         1.55902325233338      -1.73605025374685       1.87625990959782
H         1.99783480518996      -2.70686120162014       0.44503123045500
H         2.48699467096191      -0.58264057196772      -0.80988966498555
H         3.51920184724626      -0.80783386717039       0.61157068415357
H        -3.01602485384631      -0.00375048473531       1.49887022213625
H        -3.85749768326153      -0.99686930506988       0.26864451678060
H        -0.49139227445101      -0.41709753301462       2.01902648352384
H         1.04876776411634       0.99335270774532       0.44711829008087
H         1.97032927281049       0.70352841419359       1.92537853286130
H         0.40516175476618      -2.57929275901670      -1.62576274048697
H        -2.22840128296204      -1.74884945729275      -1.80576709589929
H        -3.21629999501232       0.66723921545468      -1.49026107048506
H        -4.19836777423057       1.38659262581702      -0.20338659559677
H         3.08725950553493       1.94759602059660      -0.64683980399608
H         4.00949431393462       1.67276132441874       0.84091961356548
H         2.66334947444362       2.82280516971188       0.83388869859885
H        -1.14989113383092       1.59595347984869      -0.43779774888189
H        -2.11818122882989       2.26120099499658       0.88702989502119
H        -2.31597416300066       2.88931569622889      -0.76244476886335
C        -0.60738200059237       1.84450785729620       4.77390681189554
C        -0.92233398994439       1.00865742531041       3.52674903833794
O        -1.97898688167291       1.20723931836919       2.92407166998539
O        -0.03039759239415       0.16374531683303       3.19387563043836
H         0.01634115574778       2.68559798245044       4.47112254268057
H        -1.52782575463642       2.22430772461300       5.21180873789292
H        -0.05970837920366       1.24541810398943       5.49873950917020
