32
C8H16F3NO3S optimized with DFTB in AMS.
N         1.06015241443363       0.06167419752837       0.24658898105260
C         0.72725796451069      -1.36845295952552      -0.04946514891435
C         0.60251842426369       0.23789273343654       1.66455610409821
C        -0.60191686235052      -1.62482794869991       0.65381881134406
C        -0.67655910902066      -0.58565855912623       1.78352746398704
C         2.52960332681677       0.36402917680399       0.13019173588131
C         0.28781112594003       0.96209024835011      -0.64732416643185
C         3.15825648571815      -0.15123208926609      -1.15315470195724
H         1.52372914926049      -1.98462507516792       0.37521085488955
H         0.68220571471250      -1.51712311643481      -1.12833359570751
H         0.46556625496499       1.29955318243071       1.87206847813917
H         1.38412462987717      -0.16602504324409       2.31253581514470
H        -0.61966133830317      -2.64134791966940       1.04847110122878
H        -1.44167437356801      -1.51092609347104      -0.03589257247904
H        -1.56428744647988       0.04220849240504       1.67837803709446
H        -0.71191498512512      -1.06804053358496       2.76140864364153
H         2.63135130557224       1.44959413207405       0.21039222033941
H         3.02459418505138      -0.10093567698467       0.98426789034302
H         0.59480315859686       0.79426966741009      -1.67743068994223
H        -0.77396965218215       0.75061760131946      -0.54410819860621
H         0.48620216401834       1.99505060123762      -0.36675639213044
H         4.18034564379172       0.22534455348738      -1.19078277380554
H         3.20243123884208      -1.23918863431023      -1.14640522985794
H         2.62989948848870       0.18729341160700      -2.04373805005508
S         3.59969034542317      -2.29011755342307       2.42204600316010
O         3.18662303409054      -0.97133244657824       2.89573244883643
O         4.84637398921350      -2.77634870726523       2.93895194437714
O         3.39917718452648      -2.46006272826828       0.98479675176762
C         2.28635788620263      -3.38873103632167       3.13817941095572
F         1.08570753886541      -2.93504021743574       2.71735263976586
F         2.27582187277018      -3.37004732507567       4.46203580204969
F         2.39866415177820      -4.64463101793762       2.73109835909103
