40
C10H19F2N3O4S2 optimized with DFTB in AMS.
N        -0.23842994519498      -1.75300701000181       0.33370282191902
N        -2.22228698325739      -0.95515549946775       0.10359858895567
C         1.06328691778208      -2.08066087015852       0.90477088362959
C         2.16970930091674      -1.29542933665449       0.20090610579849
C        -3.47366211995189      -0.26707152837152       0.39983224869944
C        -1.14342307491015      -0.94848014857528       0.88433815689062
C         2.02559150254260       0.21523913451689       0.41264684866090
C        -0.74786094676280      -2.28437036538175      -0.81850434851964
C        -2.00179969254244      -1.78171849133724      -0.96410562742070
C        -3.58253850106910       1.02218113907290      -0.41560738429085
C         3.14717501754558       0.98337625656990      -0.28354409491729
C        -2.49096741944091       2.02554735269577      -0.04918705308957
H         1.02484969962223      -1.84583790774851       1.97037672452278
H         1.20895358751643      -3.15667357398755       0.78500095499242
H         2.15332761822222      -1.52419729440997      -0.86926291732585
H         3.12788400308006      -1.63455706643147       0.60403309723695
H        -3.49128844772212      -0.06387918453711       1.47365368453664
H        -4.29054740704321      -0.95011783120583       0.15432493074724
H        -1.04336719660442      -0.42478918239628       1.81902542275683
H         1.05841972603684       0.54759234577930       0.01867822325195
H         2.04214887797891       0.43427955551725       1.48538066504891
H        -0.19839922156313      -2.99128621586481      -1.41469153244691
H        -2.75238560393337      -1.96495280302232      -1.71238366739590
H        -3.52393595569044       0.78234386295658      -1.48158487691797
H        -4.56514549829033       1.45937582290169      -0.21943629994483
H         3.13229556127831       0.79156165510036      -1.35715462198484
H         4.11808924316440       0.68128141060906       0.11028527717374
H         3.02260718443967       2.05356079667594      -0.11915973176533
H        -1.50339241173417       1.61360679170876      -0.26238874718286
H        -2.54236622113679       2.27573804069267       1.01088319740645
H        -2.61762508727410       2.93871269159506      -0.62960004060808
N        -2.76029102345826      -3.15712223220961       1.86606285982953
S        -2.38513288044695      -2.61636422059630       3.30475600353412
S        -2.04004741262368      -4.46555809462254       1.31785481252169
F        -0.75807499559221      -2.33283315465729       3.23636957730267
F        -2.58090633440578      -5.66959291651899       2.23226221862156
O        -2.92845676857534      -1.29113995642251       3.38931775646388
O        -2.52898150993477      -3.50510127463933       4.40460378433677
O        -0.61509453327821      -4.49765101766861       1.47403211271011
O        -2.57432879648913      -4.71033390990473       0.01492941946265
