51
C15H29BF4N2 optimized with ADF in AMS.
N         2.97035626542288       0.22306335033835       0.45443074469211
N         2.83530833969727      -1.81237273755109      -0.27842506718176
C         1.79646903115647       2.33584286963102       0.97384795639434
C         2.93118106481123       1.38839075496732       1.35718316923724
C         1.09223333432253      -3.54536024365732       0.02711601320510
C         2.55214797122253      -3.25904361275483      -0.31132700147607
C         0.43477542897290       1.65394025164940       1.05322067748673
C         0.10088880453095      -2.75267039579877      -0.81982684408828
C        -0.74129218445801       2.56129194631077       0.71121285616453
C        -1.33966271199493      -2.96082104293478      -0.35933007958301
C         2.81077304818458      -1.05352466313741       0.82852452397571
C         3.08398710554581       0.28215038803428      -0.91958015229671
C         2.99428845736810      -0.99942063798886      -1.38029577493076
C        -2.06867790248053       1.81048876129448       0.81768330738492
C        -2.34108467591049      -2.10581750060710      -1.13217318291960
C        -3.27986867485726       2.67657209317348       0.48855250010804
C        -3.75706137287504      -2.23487523851198      -0.57676915665935
H         1.84073816960430       3.18737679189781       1.67591186987189
H         1.97066042237363       2.75842332586311      -0.03380508336283
H         0.92802283875415      -3.31388297616906       1.09141394739010
H         0.93467838009451      -4.63083149518824      -0.10146982300463
H         3.91816478670878       1.87465651651960       1.30992947982235
H         2.76184387079770       0.98202255844808       2.36536305461358
H         3.23285494993298      -3.74658713096983       0.40163638033161
H         2.81367625781569      -3.59342405245934      -1.32698943936990
H         0.30420852991301       1.23784481553722       2.06435560375952
H         0.41619650599072       0.78117077315179       0.37643037108032
H         0.20648438312604      -3.01620652327047      -1.89105597470546
H         0.32623510505867      -1.67548835783816      -0.72684870203958
H        -0.75461286963257       3.43127352779046       1.39504704687473
H        -0.62640447006875       2.96917253519932      -0.31202543196553
H        -1.39423511089378      -2.70130664236327       0.71207742318070
H        -1.61374878900268      -4.02871474537234      -0.45053535475626
H         2.63437641858939      -1.43329981403537       1.83968684763039
H         3.21080174736867       1.22009987267999      -1.44484472286594
H         3.02524006926562      -1.39868187242158      -2.38595909864307
H        -2.03786306216084       0.93726920081823       0.14194661383887
H        -2.16226391386600       1.39723912078129       1.83781591216067
H        -2.32432742750979      -2.38352020331140      -2.20316661644743
H        -2.02072862895549      -1.04914410669656      -1.07707170862612
H        -3.34799288680587       3.53700730553894       1.17417236630258
H        -3.21553488526971       3.07148445676661      -0.53851945459821
H        -4.21752528661950       2.10536931536974       0.57303690169055
H        -4.47986168036736      -1.63248466788189      -1.14908922768360
H        -3.78745329496811      -1.90076802554373       0.47251134553764
H        -4.09398535754437      -3.28387940353749      -0.60295646870956
B         0.76438305933110      -1.46144789575965       3.37449798103851
F         1.45316220471524      -0.23207394895540       3.64471082639361
F         0.02779545641095      -1.30645896870883       2.15981646553746
F        -0.05991892481777      -1.83325928000909       4.42831279733395
F         1.78424455707245      -2.47007559162747       3.13507439467591
