43
C13H10F18NP optimized with DFTB in AMS.
N         0.13340435605971      -0.39121409011301       1.07561070744668
C         1.26737958321989      -0.33803539465628       0.13466180888622
C        -0.62191328999879       0.70392649110779       1.26209326164114
C        -0.12200655677272      -1.52635148244577       1.74288474646582
C         2.28202034058211       0.73054385689989       0.51849186002902
C        -1.69168451625687       0.67986150863478       2.13140671454711
C        -1.18722937507204      -1.60402158593110       2.61593124220382
C        -1.98794022233675      -0.48926743685566       2.82010650891771
H         1.73845428140933      -1.32305273681827       0.13598003438917
H         0.85387094307991      -0.14313335211775      -0.85993709458354
H        -0.34775291540685       1.59360239214435       0.70954556314631
H         0.54808059937855      -2.36042849022566       1.57725330936065
H         1.85198292025914       1.72823355177277       0.45405869108123
H         3.12282975306831       0.66548847362869      -0.17066445196126
H         2.64232403638224       0.56990885265393       1.53133564787346
H        -2.26886643634648       1.58243315789774       2.28372728365948
H        -1.35781856864292      -2.52378430542307       3.15975728416494
H        -2.80969267016770      -0.52118083865861       3.52441572531086
P         1.93725440261892       0.29914580747115       4.87462854048400
F         2.92273928998501       0.84917882189378       3.61883520755029
F         3.23990310825218       0.33169170626071       5.89925835257277
F         0.57251351161146       0.22281905322866       3.81890132899659
C         1.53686248412503       2.20945425444259       5.11927288861930
C         2.35856780072276      -1.50198652877931       4.17456261785683
C         0.84836184773228      -0.36943756528426       6.41100287855456
C         0.83561772342814       2.94444011539145       3.93534827729664
C         3.65662369845710      -2.21883302058681       4.62141630768801
C        -0.69205486903593      -0.49301949554036       6.27910662843154
F         2.68589557710145       2.86129489747632       5.34750043391167
F         0.72848982542709       2.43709882775908       6.17067470481259
F         2.45811355005610      -1.41379823376863       2.81904465582821
F         1.32692730531052      -2.34691383299755       4.38336506291679
F         1.08693790040856       0.40164653813522       7.48496394542232
F         1.29939117968848      -1.60110925342980       6.72585638154107
F         0.94652766488357       4.26269872053805       4.07519965398238
F        -0.46988979022570       2.65273639300663       3.90343775067717
F         1.32951502870015       2.63112226381899       2.73173997852007
F         4.71976824941564      -1.49576098367896       4.28406128731997
F         3.68857029421518      -2.44044663683752       5.92685067816131
F         3.75481497851986      -3.40149252699854       4.00067619491814
F        -1.26844837290034      -0.71835472938513       7.45474937441973
F        -1.01868148899248      -1.50893038079314       5.46766019508904
F        -1.23653684114306       0.61063052256262       5.76183445295017
