29
C7H16BF4N optimized with ADF in AMS.
N         0.85237562088069       0.41343242992283      -0.27468861798499
C        -0.14788574539100       1.37095892207835      -0.92019789131726
C         0.25802761422079      -0.97714266606683      -0.25698757509451
C        -1.49468114804796       1.35171089253940      -0.22643259070969
C        -1.07172951099475      -1.02582978884726       0.47881775018686
C        -2.07931529730634      -0.05744736105529      -0.14324011711726
C         1.22413603707327       0.84712227928137       1.11690030465124
C         2.09922357293899       0.41987127066071      -1.10407799422859
H        -0.23403793702997       1.02386455212143      -1.96344657143597
H         0.31985237349383       2.36512332755187      -0.89137331972821
H         1.00998383148450      -1.64188429996763       0.19479273878898
H         0.12401186365527      -1.26369913435749      -1.31296461010218
H        -2.15616920949847       2.01942812242739      -0.80204435303916
H        -1.40194860415188       1.81913994747586       0.76656717724501
H        -0.92168831061465      -0.79751622161484       1.54688830167883
H        -1.44002805310870      -2.06388353852869       0.43051478656536
H        -3.01375234426392      -0.05559218946123       0.43944060928422
H        -2.33453907390908      -0.41117804146184      -1.15974364714877
H         0.32238478697892       1.06978075912127       1.69089983125726
H         1.78590263227166       0.02650210587478       1.58267950538854
H         1.83431951007527       1.75750032580261       1.06652275713691
H         1.85239881601408       0.06590268786763      -2.11314716118491
H         2.46985935051714       1.45441650861805      -1.13149418260361
H         2.83450352020408      -0.24777815465263      -0.63675550466868
B         1.59141071743681       4.18538301621569       0.62564578981352
F         2.44714279387791       3.64821673289055       1.63161124991457
F         1.69685222402697       5.56727727500123       0.52228315425877
F         0.24223988695659       3.78560774961622       0.91211642351661
F         1.96337077870996       3.55381243624648      -0.63470036012290
