38
C10H20F3NO3S optimized with ForceField in AMS.
N        -0.05337727222481       0.24917567199771       0.16055717542407
C        -0.97173205958758       1.24732990608132      -0.47540996766673
C        -0.49548031880905      -1.14206268058165      -0.16476346469921
C         1.31091715233397       0.49593234754221      -0.41537751750396
C        -2.46498996232414       1.01871242845224      -0.17347009191119
C        -1.97509043380078      -1.41227272104548       0.15896784383125
C        -2.88051043077702      -0.40241135924546      -0.53483589965223
C        -0.01500579803043       0.46378489488321       1.63311873980043
C         2.44594002234697      -0.40151250165545       0.13752647732992
C         3.77420819421758      -0.07819348397201      -0.54246372051922
H        -0.86012867397297       1.22255625756294      -1.58461599154014
H        -0.70729083373005       2.28111430373370      -0.15519880298286
H         0.09887606463572      -1.89083206215205       0.40177068336950
H        -0.33927798887579      -1.35311041946736      -1.24768051442167
H         1.60732183087790       1.55702834107736      -0.24249335962442
H         1.28539673175698       0.35893931592870      -1.52160268110308
H        -3.06691479890128       1.73182342345319      -0.77725592337027
H        -2.69771087827583       1.22884446057622       0.89075711743695
H        -2.14561700024089      -1.38827794047510       1.25633806983138
H        -2.24009087431732      -2.43134084617575      -0.19602547960315
H        -3.93353325141341      -0.57295377788561      -0.22249570605237
H        -2.82022018311757      -0.54165169839700      -1.63686784840999
H         0.55327976371164      -0.33917958522440       2.14836192110467
H         0.45165561885878       1.44277482673880       1.88292752019600
H        -1.02400330010730       0.45466974311574       2.08806487099882
H         2.58136162049316      -0.23969040162228       1.22637827547896
H         2.22917706531894      -1.47333057130556      -0.04489451358010
H         3.70366862343671      -0.26091825143204      -1.63591901898213
H         4.05214371036174       0.98250943418969      -0.36437136554032
H         4.57301606239819      -0.72797482385436      -0.12621852922335
S        -4.99989546704035      -4.94905507025061       0.44328001613889
O        -5.59516765991471      -3.55853072965080       0.17556217104259
O        -4.37450938955407      -5.32740999069849      -0.90770603831151
O        -6.24113369016184      -5.85117502358131       0.51678949858818
C        -3.88491661080157      -5.05490393265010       1.87133781847706
F        -4.56580725130085      -4.68609765221095       3.01588548486486
F        -2.81002001417585      -4.20812769264938       1.68372469932891
F        -3.42864272729283      -6.35244782254984       2.00466050645548
