40
C10H22F6NP optimized with DFTB in AMS.
N         0.01502460527867       0.47322256855241      -0.43208761451297
C        -0.96427739070646      -0.65400765967255      -0.43106822471356
C        -0.74390362110917       1.61037066001171       0.17883477550803
C         1.22433088900757       0.17889269941295       0.40959978777897
C        -2.31462839541285      -0.01130257653231      -0.74460982301313
C        -2.17107895306908       1.46630113876523      -0.34096026628569
C         0.39654968020832       0.82849986765815      -1.82700141018387
C         2.11542986017170      -0.93338443150945      -0.13098798857487
C         3.29396294078963      -1.12834357309507       0.83210194108358
C         4.34121055650288      -2.07009209535289       0.23201254069589
C         5.47903592065197      -2.32844223777479       1.21810767791478
H        -0.96237961307405      -1.09706092453069       0.56750732477356
H        -0.66192867324090      -1.40506428366012      -1.16060156382733
H        -0.26099055785339       2.54781426425778      -0.09607347671544
H        -0.70704239460215       1.48939913333818       1.26346307908281
H         0.85704070726342      -0.07942824862421       1.40662259545979
H         1.79215841820406       1.10708140973451       0.47020143856747
H        -3.10682531924265      -0.50745145576538      -0.18185809882496
H        -2.54728171375928      -0.10021918591118      -1.80769003089029
H        -2.34212491432162       2.11852233217546      -1.19936773991938
H        -2.88412780511465       1.73900619203927       0.43851552935658
H         0.84146272795976      -0.03790233553041      -2.30944452125148
H        -0.49363120010041       1.13455150183373      -2.37099901384157
H         1.11512424992185       1.64346283587027      -1.79265519137142
H         1.55364720867685      -1.86770799922050      -0.23376122512125
H         2.50686700901280      -0.65704311052453      -1.11218868540925
H         2.92681610739349      -1.53066444850903       1.78260477828663
H         3.75470192004880      -0.15626980945641       1.03126227330123
H         4.74659601536130      -1.61639287009152      -0.67783891783837
H         3.87078097163918      -3.02078358929279      -0.04301166165301
H         5.95647297104052      -1.39007440043989       1.50124614223144
H         6.22806211985251      -2.97619696304131       0.76209657551192
H         5.10175979663138      -2.81425862764096       2.11920644763879
P         3.41873541692645       3.06508907002180      -0.58797886199252
F         3.18617879778221       1.57828814998599      -1.34528191203568
F         3.22963838896382       3.80418860614574      -2.03155041140822
F         1.73184977438909       3.13518117199068      -0.36759754651612
F         3.56690478058683       4.48763132461562       0.18045959202242
F         3.51275364357612       2.25226054886005       0.85958720279732
F         5.02173848726563       2.92881172440645      -0.79799047171083
