35
C11H21ClN2 optimized with ADF in AMS.
N        -0.97176354759991      -1.77656597034011       0.25789914991571
N         1.18683788854410      -1.70423052354716       0.23869236865239
C        -2.35653395113900      -1.48181188134989       0.64297304129521
C         2.55121570510173      -1.31142520876000       0.62689472690922
C        -2.80238250069474      -0.11065904411887       0.13595787619527
C         3.10664375989772      -0.25458540616108      -0.32498139394179
C         0.10397187511615      -1.39508312596230       0.96886906271020
C        -0.56374248007339      -2.32931776043499      -0.94380535502626
C         0.80081030138394      -2.28510891242452      -0.95264122210370
C        -1.99189367753090       1.04358519902860       0.72287546107073
C         2.22538206729796       0.99321970713719      -0.39935268186021
C        -2.51713873855243       2.40825131100673       0.28849056640642
C         2.87566499378394       2.11041482516247      -1.21117402926083
H        -2.98730736820544      -2.29198460641721       0.24554101953492
H        -2.39527217468806      -1.52221526030590       1.74195946014019
H         2.45131932188691      -0.89041519493181       1.64456844921166
H         3.17202083674897      -2.22063608384651       0.65339381399897
H        -3.86927026654665       0.00254445757947       0.40280798549628
H        -2.75021051761836      -0.09478407658955      -0.96925714531585
H         3.26206458444097      -0.68011336009780      -1.33513389785503
H         4.10780518145883       0.01753689970408       0.05544527677096
H         0.18304395868590      -0.76585648740249       1.92432305825404
H        -1.26666436303320      -2.71778897778194      -1.67124052139624
H         1.51684031760487      -2.62487707438670      -1.69081197308869
H        -1.98041692584340       0.97446603630911       1.82527829682260
H        -0.93416340331856       0.95609180048200       0.42526759621207
H         1.25618043418307       0.72457513763006      -0.85785151884774
H         1.99863696215177       1.32911175187576       0.62930196899668
H        -3.56188278871233       2.55611700381640       0.60652910549759
H        -2.47913169740385       2.52130349348093      -0.80736309269557
H        -1.91138062827135       3.21087455721780       0.73387565673964
H         3.07391329041326       1.79267468390881      -2.24839721184509
H         3.83615090473468       2.41173332590351      -0.76307363702552
H         2.23202462763970       3.00186718335431      -1.24822384392713
Cl        0.87029150445710       0.58667800306159       3.10739814905891
