39
C9H20F2N2O4S2 optimized with ADF in AMS.
N         0.39800619725082       0.16179921450467       0.34625644508953
C        -0.55592840910109       0.63837725711216      -0.72743173453406
C        -0.26034970844408      -0.96019878054624       1.14112263750906
C        -1.90384415619868       1.07143603988909      -0.17835199469774
C        -1.62749796804777      -0.58079153115557       1.68900694371556
C         0.78124643179348       1.27767421474150       1.30916455184707
C         1.62950253064863      -0.38114587196911      -0.36605745919944
C        -2.56306469621672      -0.06900331275804       0.59682169389666
C         1.43114020754817       2.48979165735856       0.68309392000296
C         2.75079804150551      -0.85566768471702       0.53331143112413
H        -0.68168974121413      -0.21481745527826      -1.41478830950769
H        -0.04583712563915       1.44421792980294      -1.27330265441004
H         0.42989685310856      -1.22290540625519       1.95567399194719
H        -0.34090088330813      -1.80765296293844       0.43984803595082
H        -2.52394956622689       1.37784052206151      -1.03731182260532
H        -1.79190142840135       1.96406516040808       0.45984123039174
H        -1.52005838186925       0.14769778639675       2.50795271249180
H        -2.03390047944752      -1.48732563919337       2.16723278168029
H        -0.12937482266844       1.55491490319816       1.85006549767155
H         1.45083992111180       0.81073263368164       2.03637328957833
H         1.25380021215039      -1.19940783570072      -1.00012175026295
H         1.96919959788397       0.42780046830162      -1.02982919033617
H        -3.51742743958161       0.26464499793520       1.03361096469207
H        -2.80140197604175      -0.88987603715058      -0.10565132756015
H         1.69152137577302       3.16672388863122       1.51305228171009
H         2.37219630207143       2.24990815355700       0.16794504365615
H         0.76483993213156       3.03510328313468      -0.00175610348332
H         3.54276248309227      -1.25966576997673      -0.11638277379396
H         3.18868739494782      -0.04782781497833       1.13315113207349
H         2.44033828239942      -1.65500534717013       1.21900409109660
N         1.40632279575231       1.43110259634976       4.42671672435574
S         2.89183590171724       2.04609720330303       4.35040709583259
S         1.13364179970051      -0.12335909939033       4.69827016964145
F         3.53453966939821       1.31809709023592       2.96515446641012
F         1.65625999297894      -0.39837725289009       6.22559194351759
O         2.75036897209736       3.43167552937798       3.94524791377212
O         3.80781417006142       1.64282386564004       5.39478017323567
O         1.92304267122152      -1.03724370920328       3.87450635100630
O        -0.30720880733780      -0.30976573205008       4.74746313529416
