43
C13H24F3NO2 optimized with ADF in AMS.
N         0.00130933797139       0.30454741478412      -0.20423523744196
C        -0.74831762994688       1.17625532096413       0.78062605819842
C        -0.89374262722293       0.03687766934471      -1.39364709199901
C         0.43400816802887      -0.99331405968706       0.48552334793890
C         1.23420082634238       1.05550594731113      -0.72440097840029
C        -2.11810769320838       0.63547399584129       1.16984522103374
C        -2.21963555117524      -0.59315177707805      -1.00518742008114
C        -2.98210067576824       0.32294674884981      -0.04921119240277
C         0.82158677591499      -2.13478404025054      -0.43879134013402
C         2.07034736384776       1.77267143861897       0.32296440393347
C         1.30590748787022      -3.30682528053846       0.42018315557972
C         3.28653920165689       2.39915751928272      -0.36843912626560
H        -0.09905201471464       1.28743348632634       1.65873042219420
H        -0.84784317773620       2.16071348625691       0.29414423519604
H        -1.07024032841162       1.01827064285197      -1.86306255150807
H        -0.31297838035773      -0.57683323215903      -2.09454772137567
H         1.32707953127865      -0.73549006910217       1.08217234617086
H        -0.39287085778589      -1.28886860244033       1.14465716700085
H         1.87345151612655       0.29837866244449      -1.21374915890033
H         0.84780011438008       1.77131646497183      -1.46869600470178
H        -2.01236269951933      -0.26387924151360       1.79856116854550
H        -2.59617624263856       1.39798741759164       1.80718613884094
H        -2.79418623612520      -0.76438540117355      -1.93063196230711
H        -2.05721579009750      -1.58250876665158      -0.54611237743543
H        -3.93222535726644      -0.13844734914841       0.26239248397291
H        -3.23618017738942       1.26307790857691      -0.57298944058666
H        -0.02330726598824      -2.46178504702278      -1.06785410362244
H         1.66125449663973      -1.81137770779626      -1.07821901878922
H         1.49552293518245       2.56214981643484       0.83488367772738
H         2.43501693020573       1.04299055616921       1.06455704998774
H         1.61821566421095      -4.14337688824074      -0.22123730202657
H         0.51426563938051      -3.67250221079572       1.09539649754049
H         2.17077287157984      -2.98943863080008       1.02116440257537
H         3.93838339306496       2.87843446508714       0.37566184797170
H         2.98428708525432       3.16465511642222      -1.10224393236320
H         3.87206937749721       1.62595107187433      -0.88619449089631
C         4.07066448439350      -0.96069906095490       0.05334256957611
O         3.45929590410202      -0.94960646888925       1.15140882984812
O         3.64967242793886      -0.84721096545634      -1.12674500040864
C         5.62512661925262      -1.07065070276405       0.16583712600258
F         6.17624403718493      -1.82474922983841      -0.83108633469333
F         6.04746206724486      -1.60354178278516       1.34772125232720
F         6.18597806380219       0.18665843068175       0.07378238477734
