38
C10H19F6N2P optimized with ADF in AMS.
N         2.53688847536612      -0.68924869853474       0.50459325009287
N         3.46781363481971       1.26817482029411       0.58780533877953
C         0.31805792124414      -1.79586282788224       0.30183523560176
C        -0.40416398328340      -0.62741311049890      -0.36497380308250
C         1.81123870793014      -1.85967171172258      -0.00634299517706
C        -1.90293469347485      -0.60228122898760      -0.06570454322400
C        -2.62067289917495       0.56987734845687      -0.73470818414218
C         2.78143785712219       0.42495277429464      -0.19341574815157
C         3.09738162814346      -0.56314256232138       1.75861528098913
C        -4.11645220101487       0.60765457452737      -0.43027719942123
C         3.69007942957623       0.66428395295407       1.80930663431191
C         4.09178857867359       2.50765727990136       0.12994339143407
H         0.16592944049639      -1.75800415480207       1.39597421472197
H        -0.12126066329344      -2.74805105377716      -0.04413855712547
H        -0.24850830070176      -0.67869039788781      -1.45831747175246
H         0.03703098274520       0.32758681938962      -0.02635025284473
H         2.01811274453120      -1.89841474756361      -1.08609138107717
H         2.28238042266755      -2.74179344834604       0.45075804736746
H        -2.36195289810454      -1.55105423812486      -0.40007558891170
H        -2.05857303504017      -0.55058336274966       1.02824963714160
H        -2.15084919934041       1.51484171257365      -0.40553053624993
H        -2.46410324882651       0.51072110664315      -1.82701506025448
H         2.56013597985845       0.57946139283480      -1.24294190322691
H         3.04068862771383      -1.35476374664112       2.49469483595674
H         4.26136098043871       1.14789883592863       2.59192514843230
H        -4.29690999119541       0.70044035655495       0.65266286908901
H        -4.60670408349739       1.45964997718075      -0.92717924106429
H        -4.61256158542293      -0.31333241269909      -0.77541429954079
H         5.10188760548126       2.27591241513930      -0.23290379443228
H         3.50476339217747       2.91734495070642      -0.69798667098641
H         4.11553633541863       3.21966161255496       0.96402082214423
P         4.98988592663475      -0.33290668210156      -2.75781418992400
F         4.76704991292644      -0.24588988333129      -4.37401212863520
F         5.68921772372355      -1.80579991508940      -2.87943168158997
F         6.43354473618820       0.43436782655786      -2.86168788690056
F         5.15463425644039      -0.39700741756394      -1.08748207554459
F         4.21700283393624       1.15837771809518      -2.57604338436827
F         3.47577851251680      -1.06219512416262      -2.59155343643481
