44
C12H11F18N2P optimized with DFTB in AMS.
N         0.51992740920792       0.03055057417830       1.75416633356908
N         2.16843581485327       0.17885895681341       0.37561236543329
C        -0.33798354684401      -0.49281993957722       2.82473163749241
C         1.61914973924030      -0.58150860422791       1.31959717947090
C         0.37416467643015       1.21310848727663       1.08448595327374
C         1.41613402697605       1.30968776834803       0.21678376645537
C        -1.08673978129357       0.61533477807263       3.54677981489148
C         3.43471807387680      -0.08437630433876      -0.28730192585445
H        -1.03553421843919      -1.20764903668387       2.37501811182520
H         0.31590876345177      -1.02479087903508       3.52026757372111
H         2.00798421129517      -1.51736278953310       1.68070858897511
H        -0.43974418845712       1.89015941592778       1.27091030346214
H         1.68308934787178       2.08203117099706      -0.48284878941244
H        -0.39314847783357       1.38162762704619       3.88784994016672
H        -1.57967701019103       0.18392355004214       4.41684682927356
H        -1.84226495545069       1.06753291097246       2.90505182643386
H         3.79496343848423      -1.06357580126419       0.02102111365681
H         3.29142958377687      -0.05779478000853      -1.36746958868574
H         4.15445957103283       0.67856045843808       0.01124720272467
P         3.37792417746783       0.69525596103473       4.84840925598142
F         3.55121567533194       2.34630551768445       4.67638986996017
F         1.86378560248652       0.78522432424484       4.05717324945038
F         4.86933870283614       0.52417327841810       5.58654644441629
C         4.27027762844064       0.66073783303374       3.08313660240717
C         2.59711171082054       1.09576784203893       6.60222083476081
C         3.02222335733225      -1.28656304172128       4.95186504455500
C         5.74528858905264       1.13576070193650       2.98036324714290
C         1.09221704523856       1.46927226364541       6.65816228888362
C         4.15267846313520      -2.25408421829065       5.37629210719715
F         3.57263818612577       1.47788611713872       2.25755305085755
F         4.26967434604917      -0.55271191500339       2.47186753770650
F         3.25826394723351       2.14448389198626       7.11617701512250
F         2.79161512583612       0.07031103735844       7.44947640205667
F         2.59036837154795      -1.73573778753138       3.73674017532372
F         1.97789589430143      -1.49661620749853       5.77527679312123
F         6.05317110750692       1.25261134286365       1.67410477934293
F         6.57735263521468       0.24806906584406       3.50664315846230
F         5.95388658679459       2.31199542055937       3.54760447144516
F         0.72923332136279       1.79500016452518       7.89697108728113
F         0.83011662404073       2.51114651633306       5.86840353357549
F         0.31242154586105       0.45843636173818       6.26261103477743
F         3.75195790876757      -3.52405652337994       5.26284310643147
F         4.52441278010247      -2.05016779471087       6.63154364102384
F         5.21346600872500      -2.09260907379162       4.58539964414436
