20
C6H11ClN2 optimized with DFTB in AMS.
N        -0.43094887412214       0.39077453479225      -0.48037593796706
N         1.64142437104349       0.04172927076427      -0.04539773967037
C        -1.82089748808956       0.12151210412874      -0.84910094608134
C         0.52717637225517      -0.52961124790247      -0.49703418859555
C         0.07284042554380       1.56905792839322      -0.00180523326763
C         1.38713268996522       1.35285233317263       0.26959526659260
C        -2.56291847539418      -0.47352063763124       0.34171949087705
C         2.92165332406477      -0.62927429977114       0.09513402709861
H        -2.27000115146543       1.06199816718340      -1.17740112954585
H        -1.80663749255596      -0.59973278167580      -1.67183082526355
H         0.34298761977447      -1.56634883951683      -0.82265652490028
H        -0.52910695666405       2.45534510335421       0.09852757031241
H         2.14892876956822       2.00887881739348       0.65300082781423
H        -2.14079974155690      -1.44885737167832       0.58128170062368
H        -3.61088676763032      -0.60132947123968       0.07528032066291
H        -2.49070511077168       0.17942785410381       1.21141801329281
H         2.82217493540494      -1.64758256019692      -0.27631160229114
H         3.67691358481567      -0.09535152399401      -0.48218285874812
H         3.20942226102486      -0.64542808816035       1.14700068722679
Cl       -0.92109403441039      -2.97570616881925      -1.37613174227019
