46
C12H14F18NP optimized with ForceField in AMS.
N         0.54177540994759       0.01185017764554       0.02248934620575
C        -0.34703162927689       1.09407209680795      -0.48253515928764
C        -0.35140477373656      -1.04474719634023       0.56989635502034
C        -1.76643748978633       0.76710533052519      -0.05195939950491
C        -1.76458727669644      -0.73028713905023       0.11720564931453
C         1.43975645611012       0.52923295683075       1.08237793571181
C         1.36682121800682      -0.53518737918562      -1.08015815244426
H        -0.33549648271460       1.15992192606570      -1.59595943295955
H        -0.06229874622118       2.10408385867231      -0.10724471999089
H        -0.34788281135264      -1.05621430784345       1.68514863379774
H        -0.06650246645699      -2.07162837528077       0.24333681648344
H        -2.51494615417996       1.09233337081480      -0.80686467568108
H        -1.98420082571994       1.25394059839123       0.92452701770041
H        -2.52172604569112      -1.06011680888562       0.86147472252144
H        -1.96325533915978      -1.21951340886529      -0.86212859503810
H         2.12053728888428       1.31234206202882       0.67948363941805
H         0.85333813058552       0.98281775116327       1.91306740691893
H         2.06441132134092      -0.28872843513123       1.50657029485171
H         0.72503937993548      -0.95478212096445      -1.88723557141337
H         2.01114702304165       0.25622070362625      -1.52481221873247
H         2.02365239209001      -1.35208873843456      -0.71145919112176
P         6.79199373036969      -4.92174287544391       1.27722640534119
F         5.58718455275615      -6.14465858190567       1.14016680955298
F         6.35598308146324      -3.74746801582252       2.46159746904198
F         7.55431945143069      -6.11077402972845       0.29433706917332
C         7.06497562280634      -5.88420578190591       2.93778637052371
C         5.37826692483279      -4.18342841047341       0.17839429132141
C         8.34839281602328      -3.96073076235283       0.65484166713885
C         7.45749781100498      -7.38215453500432       2.83767904634994
C         5.51068411844309      -2.70367399407808      -0.23981313589967
C         9.70907110051088      -4.34287526326051       1.26468591252536
F         5.89357325377456      -5.83667598203414       3.68369294456872
F         8.03750152196279      -5.25333897387631       3.68752043517946
F         4.16562407119412      -4.27444022870198       0.85628413308981
F         5.28019982628219      -4.92685254910060      -0.98978345015049
F         8.17825428484834      -2.61646016122130       0.93342950046473
F         8.45772808659699      -4.09097652659203      -0.72266406844882
F         7.70878974149209      -7.86020037431139       4.11177550972271
F         8.59748284272445      -7.57396095281879       2.08762852188369
F         6.43432339173647      -8.14243222441110       2.30066125963348
F         4.35031028872613      -2.32302236159234      -0.88720377970162
F         5.67138527467102      -1.87891771964070       0.85794684665207
F         6.54943758765903      -2.51306334561511      -1.12800076503454
F         9.79147963038748      -3.93604418968650       2.58182908373464
F        10.70739691735842      -3.68619406708330       0.56646997901078
F         9.95425946119481      -5.69467038342914       1.17310718565617
