54
C16H29F3N2O3S optimized with ForceField in AMS.
N         3.08036569986272       0.91716088957934       0.00901518780521
N         2.91827523897476      -1.29591472033989       0.17617526483642
C         1.47695911069972       2.77873977673743      -0.24461610927524
C         2.84226106889236       2.33010662885293       0.29988397521706
C         1.00067300034524      -2.62852951747092       0.99527068603001
C         2.50431956356224      -2.60702015009746       0.67528268058838
C         0.31445450361245       2.09708655544572       0.49342199219380
C         0.14103175814644      -2.29490282945898      -0.23463477322961
C        -1.04309781523228       2.54544265914985      -0.05788525564918
C        -1.35226446400045      -2.30581349805850       0.11250982943753
C         2.82757304787530      -0.12079064689099       0.83010833833823
C         3.35366901805632       0.38081324451760      -1.19732642672380
C         3.26042637950602      -0.99159782871650      -1.09232617065038
C        -2.18752646760502       1.86395972396103       0.70297240360411
C        -2.19417317408310      -1.78176925077650      -1.05721431328146
C        -3.54065577252868       2.17643266095450       0.07240666838520
C        -3.67455523046258      -1.72643087155308      -0.69092550120304
H         1.39168020903053       3.88013432498345      -0.12053516228657
H         1.41953886539710       2.55167097386445      -1.33175285525490
H         0.78962767453458      -1.89916788038101       1.80759498020357
H         0.73088330955611      -3.64002409207536       1.36935571888333
H         3.64488301211928       2.94014315833361      -0.16790442909136
H         2.88590222216503       2.50619662135378       1.39727222918488
H         3.07960928773202      -2.84479669579456       1.59580978686644
H         2.73192550235820      -3.39275654257984      -0.07824287552112
H         0.37325409963777       2.34017650875807       1.57706270181230
H         0.39248920730466       0.99611836658824       0.37465950380670
H         0.33868525904263      -3.03688057706152      -1.03907258025033
H         0.41350278022771      -1.28706373039797      -0.61418884510981
H        -1.14113735747922       3.64883829821083       0.04217171929845
H        -1.10338866752299       2.27985257572390      -1.13659578363388
H        -1.52995472528518      -1.66788822360198       1.00611977298605
H        -1.66323416980311      -3.34539374784860       0.35271669809132
H         2.49239660849280      -0.01807381632024       1.85490635524677
H         3.53803282752896       0.94630341169057      -2.10165465499990
H         3.35470861681189      -1.70628633375940      -1.89949525804961
H        -2.04023762839274       0.76356612067874       0.69924404259089
H        -2.19107058335917       2.20991426999184       1.75951701217867
H        -2.06337026490185      -2.44586519193887      -1.93909462172951
H        -1.85816959291553      -0.75890444452231      -1.33588287285289
H        -3.73244184557389       3.27024330727257       0.09174396672301
H        -3.56941108703390       1.81439148018024      -0.97750981348389
H        -4.34265935441359       1.66344946614420       0.64417006034136
H        -4.25455843449770      -1.32857318397356      -1.55014153880574
H        -3.83301356949842      -1.05781688532656       0.18179526180571
H        -4.04993252771295      -2.74264139881916      -0.44623906631784
S        -4.82345293414629      -4.67339712162142       2.97545293730829
O        -5.14287990354808      -3.22731634482754       3.38196547648745
O        -5.23344393356219      -4.72036528627217       1.49620199374279
O        -5.92760572756931      -5.48383468243427       3.67031255704772
C        -3.12980419491506      -5.21974825349676       3.32790418238457
F        -2.90428466772756      -5.17180901838091       4.69018255415327
F        -2.23378415210597      -4.38835383483389       2.68523579145912
F        -2.96071509969605      -6.51528094064216       2.87806977496148
