56
C16H32F3NO3S optimized with ForceField in AMS.
N        -1.08482472967628       0.82730095931246      -0.17842252343585
C        -1.57892127018613       1.86498781797017       0.78473526499914
C        -2.05439043089145       0.73420704059925      -1.31826761723248
C         0.21644022940110       1.29560071669120      -0.76724341308839
C        -0.92979943235173      -0.48641395943446       0.53865283040456
C        -3.02347588669010       1.62559781077707       1.27296948219686
C        -3.50037280513490       0.43775940108784      -0.88949587834667
C        -3.98947556039219       1.49248539931327       0.09852637089313
C         1.41994556252382       1.36265788864054       0.20513566243549
C        -0.34392186865207      -1.64591737641783      -0.30107683008723
C         2.66244516275285       1.88150431396101      -0.53047275110470
C        -0.22219827726487      -2.91553503578491       0.55146631990285
C         3.88435837442509       1.92705489544158       0.39200770660073
C         0.36379534025503      -4.07276982989729      -0.26406819478933
C         5.10842715611130       2.44450860213860      -0.35792018325313
C         0.48059775127997      -5.33741912086365       0.58096916496062
H        -1.55027708452181       2.87633484977312       0.31705799835794
H        -0.93199739963971       1.91276314925985       1.68695373561034
H        -1.73799794370044      -0.02415661545729      -2.06416167104337
H        -2.07653913762084       1.69870748975803      -1.87874675079287
H         0.08737634313240       2.31236632770326      -1.20660238420298
H         0.50534065903887       0.64986866039732      -1.62676897128455
H        -1.90159455015636      -0.84075936008487       0.93199441153151
H        -0.30028338558099      -0.35414596324780       1.44606934932781
H        -3.34000480370125       2.48638820313574       1.90039377040635
H        -3.08295163894447       0.72644724132560       1.92072306787054
H        -3.59136843660300      -0.57909627264353      -0.45554291298062
H        -4.15281675617501       0.46070801775469      -1.78905513870268
H        -4.07645473830597       2.47290641782296      -0.41973314908890
H        -4.99687545994527       1.21091909602228       0.47351822496167
H         1.20171410277084       2.04505194337490       1.05173168879599
H         1.65643211198555       0.35640762997630       0.60748669743419
H        -1.00667909207388      -1.87383063966155      -1.16007875728330
H         0.66414791264184      -1.38738053638030      -0.68346440860373
H         2.45919348340828       2.90392929545231      -0.91895566858187
H         2.88398774169754       1.21450825098023      -1.39313614126338
H         0.43530550003896      -2.71206374511581       1.42557503266309
H        -1.22890621854651      -3.20474482172719       0.92718293906497
H         4.10252179400025       0.90751600650043       0.77865111526831
H         3.67920932892675       2.59609694678406       1.25599064923869
H         1.37359363618642      -3.79424019187937      -0.63664884785477
H        -0.28960891280164      -4.28352503052924      -1.13865526989554
H         5.98061804400187       2.46767597897944       0.32323667603330
H         5.34861012800861       1.77812456082345      -1.21353332007287
H         4.92615708716064       3.47436804055018      -0.73196645495905
H         0.90977300912680      -6.15602427863430      -0.03409818445181
H         1.14728649998565      -5.15937717415063       1.45155860645939
H        -0.52091712312505      -5.65271019981907       0.94392321895108
S         9.50346644518473       2.44557394858360       3.92933720987811
O         9.85318902984216       3.92694337244853       3.72601318594564
O         8.72526022673680       2.45118931610316       5.25307616454789
O        10.84981009094736       1.81773463860386       4.31729843135716
C         8.64846005700070       1.65787332459438       2.53838072345109
F         9.44457323785127       1.71645748561730       1.41068358688423
F         7.46366784316408       2.32385254217413       2.30219435033282
F         8.38038275459441       0.33799702159700       2.84537152393462
