78
C22H36F18NP optimized with ForceField in AMS.
N        -0.00080292685960       0.00161351919050       0.00315155295068
C         0.84361663438683      -1.02743780396601       0.70767773846223
C        -0.87364590738141       0.68353419659603       1.02372560056288
C        -0.82451717585629      -0.69472943979225      -1.04804122791333
C         0.85134653195365       1.04493434980264      -0.67041033289573
C         1.89386471756192      -0.47679665968953       1.70756609889943
C        -1.94185760659116       1.65825327995880       0.46263885723222
C        -1.89577399379049      -1.68757397631809      -0.52561807890471
C         1.94020140178636       0.51245020038530      -1.63824198781369
C         2.68004746304704      -1.62705777059449       2.35106937568741
C        -2.76249289755603       2.27366446735041       1.60412404815535
C        -2.66277759522389      -2.31781922845349      -1.69606358144209
C         2.73821029340712       1.67502678025903      -2.24398236280686
C         3.71001435660145      -1.10516711219213       3.34912608951823
C        -3.80746961825422       3.25050192532357       1.07201911231689
C        -3.71324177003828      -3.30843876473930      -1.20191694443222
C         3.80094223845858       1.17109073264601      -3.21661708404547
H         1.36846173997965      -1.67335773160515      -0.03104789282758
H         0.19568017482041      -1.71544672953423       1.29223651017020
H        -0.24825381682520       1.28328798060674       1.71937827077563
H        -1.38689764236487      -0.06891292753580       1.66309067397766
H        -0.16424000373434      -1.28380047527141      -1.72022990324146
H        -1.32652439329998       0.04921447982397      -1.70602181626316
H         1.34260197241040       1.69560340808669       0.08705342883480
H         0.21332478640687       1.72569689414811      -1.27387390400531
H         1.39640713241126       0.09061842543610       2.51982842657062
H         2.61689825576433       0.19207287212760       1.19889732726654
H        -2.64075074945046       1.13511029783227      -0.22047889292064
H        -1.45717870167513       2.48700203970100      -0.09195669033620
H        -2.62839292666843      -1.17580603566111       0.13029530848879
H        -1.41792503218348      -2.50731993597036       0.04798505380919
H         1.47492507546897      -0.05071532971601      -2.47233866975452
H         2.65094974078846      -0.15575492461372      -1.11184533410638
H         3.20631817677181      -2.20938916776523       1.56361088796815
H         1.98063298428639      -2.30807175510337       2.88351977936963
H        -2.08777946045761       2.81768318384902       2.30074593775475
H        -3.27911437537952       1.46918210356446       2.17164608663121
H        -1.95405749914881      -2.85291413492565      -2.36525313110527
H        -3.16919082599639      -1.52207237478896      -2.28475120805149
H         3.23681529785038       2.25085761026710      -1.43405404092151
H         2.05110550013714       2.35839672786106      -2.78929598127195
H         3.20834903990875      -0.53203892190022       4.15777695426913
H         4.44645617293582      -0.45047507011176       2.83667257849674
H         4.25164644849676      -1.96062641089584       3.80488938733531
H        -4.51948678622996       2.72566292357718       0.40034698884776
H        -3.31587828211687       4.07592719347978       0.51424185412407
H        -4.37497532221675       3.68581734917836       1.92131491181412
H        -4.44983604718971      -2.79319407869465      -0.55094720076238
H        -3.23187146763882      -4.13134881580766      -0.63180262484732
H        -4.24960308853999      -3.74477189336308      -2.07060039349827
H         3.32716483977706       0.60579551757578      -4.04732089887996
H         4.52493620900244       0.51356828724447      -2.69025736608765
H         4.35153030442797       2.03494327468051      -3.64498570124441
P        -7.27190007328801      -5.70885791800430       0.95832370328382
F        -6.13621103764763      -6.97913004634581       0.71280119689811
F        -8.88691015423706      -6.30497508703796       1.05250547804699
F        -5.76251164890794      -4.91590630295829       1.19295629623606
C        -7.29643241796601      -6.56956425422979       2.69580727826700
C        -7.33224073891161      -6.13310091768828      -0.92939276671420
C        -7.80355550068460      -3.85016627316218       1.00869168703234
C        -5.95405763743132      -6.66593417398013       3.47041427541118
C        -8.40166284560344      -5.41494065859796      -1.77856210642493
C        -7.79804333858940      -3.15335962737778       2.38458484956452
F        -7.75173512767329      -7.87421437348645       2.54729213498450
F        -8.20026469743231      -5.92472983552224       3.51611949181770
F        -7.57320684750973      -7.49436539286695      -1.09346703395472
F        -6.09965100310151      -5.83915625738828      -1.49534978416256
F        -9.10117368172556      -3.74767741368723       0.53917057751292
F        -7.00004071980841      -3.10737820675714       0.15477687502685
F        -6.21099465721104      -7.15304585207603       4.73996552947818
F        -5.33578417420917      -5.44187350298600       3.60920346859074
F        -5.07753279869254      -7.54406453882935       2.85821886151631
F        -8.39520594552188      -5.96057894557017      -3.05092601849253
F        -9.66869237937415      -5.58858260675729      -1.25296725309528
F        -8.12702900356225      -4.06800744056131      -1.90725136802045
F        -8.86855290540380      -3.57418336616593       3.15083723542007
F        -7.93571478309438      -1.78917695376177       2.19568463268354
F        -6.62262962439310      -3.36508584704437       3.07002651468379
