55
C15H20F18NP optimized with ForceField in AMS.
N         0.25796304533394      -0.11918952873858      -0.19036954392045
C        -0.60685235875120       0.69307889289508      -1.10641992320826
C        -0.50149412137062      -1.33989922280317       0.23573579402631
C        -1.97411802832614       1.06844905226852      -0.51028533498633
C        -1.88301484687720      -1.03765316326436       0.85089384595682
C         0.67452703424764       0.66311135437738       1.02575464590256
C         1.44762413282748      -0.55450830350771      -0.99966226216105
C        -2.73306751231333      -0.18454182937165      -0.08568992835699
C         1.54418543677486       1.90466895745416       0.75672386889050
C         2.51612740154708      -1.36163145185984      -0.23939943057066
H        -0.81017848682760       0.12378617065934      -2.04393736157243
H        -0.09266673657164       1.62018858605989      -1.43522926846895
H         0.07009677587432      -1.91942374917794       0.99254320017258
H        -0.66509006365772      -2.01956640945375      -0.63248091061603
H        -2.56926779617535       1.60167584752322      -1.28288351498551
H        -1.86291104594316       1.76583185079112       0.34541780892553
H        -1.77853428269355      -0.53624836723992       1.83550942494164
H        -2.41144020243355      -1.99780877616256       1.03668672251084
H        -0.20444821976729       1.01586407256981       1.59893789371940
H         1.22171365777093       0.01020242323179       1.73982373939602
H         1.11932178883580      -1.18459835105928      -1.85848387841381
H         1.94887977382348       0.32145131679396      -1.46719708490129
H        -3.67441000482921       0.10694751482647       0.42790424972368
H        -3.00247666223914      -0.77917387345215      -0.98652819871294
H         1.81077142848350       2.36965233311881       1.72932452190519
H         2.49466916765624       1.64733981746674       0.25079589072567
H         0.99576327885253       2.66969249510197       0.17258783899907
H         3.33160871234100      -1.62718314946413      -0.94512883161276
H         2.97401502453376      -0.77190281944075       0.57831090598432
H         2.10702233608657      -2.31063934348337       0.15972802914464
P         9.04166879997042      -0.54557999151601       0.43046420288271
F         9.58748604495915       0.86625800791487       1.25143209718231
F         8.80695403631023      -0.26721268405987      -1.25438040267689
F         9.48444468007858      -1.15236901797841       1.97844691382256
C        10.85972449760342      -0.41171248741968      -0.23265035931187
C         7.47470726582031       0.55031168843260       0.73038282372294
C         8.32060658150516      -2.33882441295144       0.37947752990738
C        12.01101242410786      -0.43229234871922       0.80965115434674
C         6.14684603709027       0.06295705588552       0.11553019989952
C         9.32752159303971      -3.49357642224137       0.20643062449068
F        10.99633751060348       0.77964114577370      -0.93519093336569
F        11.09965609861026      -1.43269513292644      -1.13081231580570
F         7.68973623247307       1.82101355627983       0.20442690803274
F         7.26637436975790       0.67498132424852       2.09719112935502
F         7.44936317602717      -2.43551945949467      -0.69090828801226
F         7.58457844259317      -2.58509112471757       1.53077707979581
F        13.21732636754995      -0.49587821243665       0.13447576166353
F        11.94416591753699      -1.52390826819227       1.64863315622292
F        12.02312964447185       0.72055915693034       1.57403409707879
F         5.18825452454601       1.04384728933809       0.30003647281062
F         6.26633535946786      -0.15780689706319      -1.24367487335575
F         5.69139776428298      -1.08097555683071       0.73939018949653
F         9.80255137242551      -3.53903340014951      -1.09083956286697
F         8.68107448846829      -4.69245378658603       0.45258711871605
F        10.38351967178801      -3.39881809997952       1.08506468443098
