36
C8H18F2N2O4S2 optimized with ADF in AMS.
N         0.99548240107861       0.00423458089962       0.37244122419648
C         2.15190571432649      -0.47964478630410      -0.48855217366239
C         1.55725984863534       1.27173724633494       1.01155519257150
C         2.73720591472728       0.78581860516509      -1.09449997379109
C         2.53972632389851       1.86765668849760      -0.00711683499281
C         0.63450570341095      -1.00547371381912       1.43953831237070
C        -0.17675938775635       0.33996930092404      -0.52917022559242
C         0.14059960824919      -2.32871404025758       0.89328572141780
C        -1.45949850893634       0.70095080559549       0.19164742961281
H         1.78020711858875      -1.21222285030894      -1.21619647891436
H         2.86463625179681      -0.96477374147252       0.18915668584664
H         2.07302897690606       0.95547599996373       1.92897578603585
H         0.71689870162596       1.92474398370097       1.27899759502365
H         2.22130717099287       1.05408612267765      -2.02986510245035
H         3.80018617034697       0.63671765682856      -1.32964449513917
H         3.49323104907671       2.06433005480610       0.50305508233187
H         2.17023278845963       2.81036015900221      -0.43600408759278
H         1.54811931220279      -1.15366970620250       2.03163024453917
H        -0.10999893379805      -0.52226116160450       2.08871210470128
H         0.16415636985246       1.17177075891171      -1.16106952935154
H        -0.32816215181184      -0.53347242411511      -1.17995999613766
H        -0.08104151810749      -2.98280108545525       1.74965486712521
H        -0.77920062063774      -2.23783833821017       0.29749538300729
H         0.91303754408842      -2.83274827713816       0.29585109106959
H        -2.20210139651133       0.99718749567139      -0.56512310330506
H        -1.87831363612475      -0.14668647400819       0.75054042461076
H        -1.33506909862789       1.55008692435083       0.87826341605221
N         4.75137367009578       0.13023231482122       1.60673023361447
S         5.87109462436605      -0.39107727154066       0.56777119988657
S         4.22011523663108      -0.80098462375475       2.79879306645210
F         5.01982476352708      -1.51849805030864      -0.34671621145477
F         5.50130707445983      -1.01452160107031       3.78780822064768
O         6.09627089846999       0.68598070011157      -0.37793564680717
O         6.95696894826147      -1.16095120267912       1.13185938542620
O         3.82119664892361      -2.14625987453029       2.40251919705749
O         3.27515744601307      -0.00084465308277       3.56851697219425
