58
C16H34F6NP optimized with DFTB in AMS.
N         0.51227244747048       1.73487723788820       0.24157126810485
C         0.03310795121484       2.78944694508669      -0.73253091467572
C         1.23590442537229       2.48903716898681       1.32784753049320
C        -0.65208268203431       1.01689514568121       0.85613742168449
C         1.44847818351623       0.79288586263805      -0.46043236536419
C         0.25046336496257       4.15096824362471      -0.07145183514712
C         0.56028343918120       3.84683307902264       1.39131340633829
C        -1.42864799943918       0.11684038321117      -0.10470174717917
C         2.06093619879557      -0.26665449568518       0.45081546710283
C        -2.71584891263194      -0.36618671209360       0.57448418517887
C         3.23113253178748      -0.93659895725582      -0.28068611196642
C        -3.50506860407915      -1.30039230077221      -0.34769473435613
C         3.86901167470861      -2.02681725004501       0.58387263193361
C        -4.79258634398186      -1.78559087762135       0.32598738182749
C         5.05840360248656      -2.67172199156843      -0.13459996513540
C        -5.58163146925102      -2.71816804734436      -0.59108976819834
C         5.70472625806682      -3.75810741563977       0.72307575280558
H         0.61486041715572       2.70002544935624      -1.64933077178427
H        -1.01750310541601       2.60716608292383      -0.95925922120284
H         1.17985783047564       1.93134564896300       2.26229750038963
H         2.27669483420761       2.59555549536456       1.02417787957607
H        -0.26592311799648       0.41660362356849       1.68338960046773
H        -1.31191271281318       1.78537236394934       1.26762090241940
H         0.89610225561481       0.32834835814849      -1.27991192757356
H         2.23991492993620       1.41121338678061      -0.88323798548298
H         1.10495209536791       4.64853821328913      -0.53354870668205
H        -0.63061850205903       4.78480254117026      -0.18053669199982
H        -0.35223677246558       3.80857771689181       1.99326884932720
H         1.23891814954470       4.58567035439263       1.81801496319616
H        -1.68417619746322       0.65437639629662      -1.02150942406531
H        -0.82381401523950      -0.75094935763466      -0.37963417085834
H         2.43570707156460       0.19451171535462       1.36753421536056
H         1.31708856395748      -1.02143468910641       0.72533167635723
H        -2.46204505823694      -0.89261473580700       1.50067469773191
H        -3.33460534967532       0.49792039115481       0.83902393337284
H         3.97903990697162      -0.17649786346140      -0.52298659937086
H         2.87327581893009      -1.37119495478127      -1.22017012959847
H        -3.75287350859794      -0.77165439575038      -1.27434035903145
H        -2.88212195607633      -2.16187810770613      -0.61104978250007
H         4.20743217374862      -1.58855923107424       1.52894999550536
H         3.12178415086525      -2.79331552138741       0.81967026623923
H        -5.41263481726093      -0.92199606168400       0.58915125669253
H        -4.54138088271955      -2.31198213698310       1.25296670147765
H         4.71935101624473      -3.10755752988437      -1.08055048968757
H         5.80094934327121      -1.90196784448477      -0.36778056907079
H        -5.85831814544265      -2.20420718308541      -1.51253206651659
H        -6.49172973052607      -3.04986332820918      -0.09135077567644
H        -4.98640451506986      -3.59535573085986      -0.84799783135481
H         4.98483253525683      -4.54583865241492       0.95090336666328
H         6.54747545955934      -4.20091160320778       0.19194477548569
H         6.06796825142518      -3.33808370065438       1.66203270876130
P         4.19438245795213       3.67502165565230      -0.87229338884296
F         4.25046544916780       5.08109796351519      -1.68553432436589
F         4.99317702483956       2.89172518518792      -2.05666083652596
F         5.57020716391098       4.00196479432651      -0.07559545751788
F         4.04871266672780       2.22169915589874      -0.02972108642699
F         3.30243255054928       4.40277088771935       0.33958628989581
F         2.73089417956837       3.30178673295842      -1.63510376303039
