41
C11H22F3NO3S optimized with ADF in AMS.
N        -0.28539649072326      -0.30435177432976      -0.25752734742803
C        -0.92684426192297      -0.29087945381530      -1.63840228347002
C        -1.25875282770010       0.52955910040470       0.54415943607568
C         1.07755729785295       0.36395439671768      -0.32928177776556
C        -1.40194604805537       1.14856553287080      -1.81804536981500
C        -1.63596518416261       1.68852658077889      -0.38039117119420
C        -0.18859793240680      -1.70483238275466       0.29992363333744
C         1.82197149968177       0.48054790911678       0.98763018158963
C         0.78053265716087      -2.59222499061006      -0.45331497675637
C         3.19961127384021       1.09832816043212       0.71583228409644
C         4.05663126477319       1.17477205613280       1.97406709429278
H        -1.76914807092441      -0.99753362015243      -1.57798481342008
H        -0.21061772854946      -0.63126513487782      -2.40158640181022
H        -2.12250171639717      -0.12110985090695       0.74876941985513
H        -0.80015428121382       0.81907572627401       1.49672203708349
H         1.67547709877924      -0.21150912593799      -1.04822985747061
H         0.91813396351870       1.34928411413935      -0.78592264911574
H        -0.63476870389302       1.72567532984775      -2.35378906781305
H        -2.31583705238164       1.17295798146987      -2.42636135621203
H        -2.68003051681630       1.98308448261640      -0.20315337797308
H        -1.01077127362572       2.57112520981865      -0.18206173900386
H         0.08683456076743      -1.60148844462879       1.36015472632903
H        -1.21335575051498      -2.10706328641856       0.25810113758647
H         1.28125366611637       1.10341298865477       1.72300579475678
H         1.97016626703387      -0.51290710425231       1.44497776095523
H         0.68791328671552      -3.61188255720955      -0.05209553908904
H         1.82462568382464      -2.27261174815951      -0.33453698557086
H         0.57092160458054      -2.62181617336523      -1.53295033120490
H         3.70708131821185       0.50173765465219      -0.06178827661079
H         3.06772265067517       2.10792476552296       0.28792983566877
H         4.22572050337608       0.17224999680871       2.39926154813640
H         3.57823481427301       1.79380463145936       2.75059031570308
H         5.03940849139882       1.61366436865929       1.74966435338234
S         2.21381552709353      -0.48888141090129      -3.59006054041268
O         1.65016754812597       0.87548040889130      -3.51940152435716
O         1.20750560906502      -1.54963233289668      -3.82053157039270
O         3.20150928025096      -0.80425681717830      -2.53505099053476
C         3.23403742538707      -0.46061094108000      -5.16956641905433
F         4.17987709830016       0.51468240028499      -5.11138607470401
F         2.44825950648564      -0.21561558490925      -6.25179684533988
F         3.86737157719904      -1.64577759176890      -5.37158694212972
