39
C11H21BF4N2 optimized with DFTB in AMS.
N        -0.28191354144809      -1.64398404674015       0.39405113193126
N         1.75052215969157      -1.57937803973894      -0.31449207169391
C        -1.41037789899135      -1.63148306962147       1.32404182318856
C         3.20961797741365      -1.48666140458935      -0.28778307922289
C        -2.39754156558519      -0.51017526358187       0.99933702439085
C         3.71321361842586      -0.29683787347665      -1.10541947179902
C         0.99109847183596      -1.61594989845588       0.77550395518407
C        -0.33915471861246      -1.61644205061315      -0.97503591850419
C         0.94330665859931      -1.57587142097415      -1.42228113313640
C        -1.75395658034809       0.87528604963486       1.11217673401676
C         3.22942325521621       1.03894137027681      -0.53264203555241
C        -2.77677120554364       1.97999150871413       0.86124136516658
C         3.81799103145576       2.21589591444210      -1.30578901774650
H        -1.90677378045519      -2.60599537757069       1.27082506786093
H        -0.98950625035977      -1.49033525476313       2.32374269378083
H         3.49397339195398      -1.37316131929898       0.76190862047272
H         3.61871278194260      -2.42309300391963      -0.68064490705770
H        -3.22376355335819      -0.59397546097109       1.71230064081813
H        -2.80932090839869      -0.65627853652017      -0.00481971776027
H         3.39466374005403      -0.40010366579305      -2.14800276032509
H         4.80692650843221      -0.33446814308334      -1.08621895000224
H         1.34351271720474      -1.64089110805872       1.79266608282229
H        -1.26899172711140      -1.63196354880190      -1.51556895520422
H         1.33615577740973      -1.54950725328224      -2.42326228154108
H        -1.32019620878163       0.99163076648793       2.10888786880843
H        -0.93963509993889       0.95793441204274       0.38740034473426
H         2.13794399047602       1.07932701070416      -0.57817365479484
H         3.51784683883009       1.10565113497937       0.51985706768651
H        -3.58607676901032       1.92914444453322       1.59129718589352
H        -3.20503624415488       1.88949956514491      -0.13877405526376
H        -2.29446807041161       2.95354105674109       0.94559720590894
H         3.52259122400128       2.17425618621992      -2.35586152038617
H         4.90774725321135       2.20698039082749      -1.25118789303701
H         3.45719687255705       3.15209175893714      -0.88050115117398
B         1.60623648851655       0.42741130908844       2.75494199060159
F         0.63602931407179      -0.43742212562229       3.31864729533510
F         2.78615270715966      -0.32695965915280       2.53664154682719
F         1.83166214971665       1.52368272400692       3.52938780359437
F         1.11887378573339       0.79074940594844       1.46607907097880
