58
C16H22F18NP optimized with ForceField in AMS.
N        -1.43596102408591       0.38016339454862      -0.06364336648574
C        -1.73458204277688      -0.90205249433164      -0.76803116486947
C        -2.52269023148618       0.54475606637437       0.94010012605778
C        -0.11930105149076       0.32836858536657       0.64261490523547
C        -3.01732941345165      -1.48221560283806      -0.18722628107749
C        -3.68460117309867      -0.32133242711939       0.50113077939427
C        -1.48309732579325       1.52146885756563      -1.01491393427702
C         1.11162370431830       0.29319084376174      -0.29340116199972
C         2.38004173100182      -0.06603431356498       0.49072506015557
C         3.61525555713923      -0.05903355236495      -0.41600766933836
C         4.86843078812105      -0.44987577132933       0.36223654732384
H        -0.92525165708214      -1.65774704687010      -0.65656341372258
H        -1.87906856535432      -0.75593754415469      -1.86393248479769
H        -2.84959832752202       1.60357761664992       1.06208095460553
H        -2.21061133195751       0.19098558722659       1.95112539023017
H        -0.08961320129303      -0.56950288781254       1.30345883700039
H        -0.01311441348117       1.21510775866250       1.30947290876383
H        -2.76808400939029      -2.26530978290510       0.56402404076871
H        -3.66987424091257      -1.91960487221462      -0.97374696699927
H        -4.31986043024582       0.23455554882119      -0.22332779830842
H        -4.30203326950268      -0.65444879727728       1.36384448440615
H        -0.79997634517088       1.36065240865309      -1.87714708699887
H        -2.50674150621277       1.65126586619937      -1.43275329934842
H        -1.19315692068497       2.47090741419474      -0.51147930068686
H         0.96776338787199      -0.44843258391408      -1.10692052379221
H         1.25335154153868       1.29475301994616      -0.75414699391100
H         2.26156841575443      -1.07744701443508       0.93593254589721
H         2.52393378812825       0.66709091341298       1.31496607883557
H         3.75914698405143       0.95635029081846      -0.84530181733556
H         3.47243475887164      -0.77869460063458      -1.25155205853093
H         5.04352324560864       0.26374104532836       1.19552314414074
H         5.74843005498790      -0.42906957309416      -0.31446070012531
H         4.76165030140172      -1.47588245254063       0.77491069589031
P         0.04197255526616      -6.26654734684364       4.47957635918489
F         1.57942732640615      -5.66121104959639       4.96606790776065
F        -1.24116319617873      -5.33317450382221       5.15301336748870
F         1.14027711561131      -7.13402258147660       3.47864356167453
C         0.12734818372358      -4.62854998937426       3.44514712419591
C         0.35021891760213      -6.93526194919412       6.27115733504502
C        -1.11408267326651      -7.61665538179192       3.72068425220627
C         1.29555951808792      -4.48115209486502       2.43446067740483
C        -0.80120510450541      -7.71488127917918       6.94223332257453
C        -1.52070759643720      -7.45344474152855       2.24399965283767
F         0.22886782451400      -3.55010481950214       4.31567138762170
F        -1.04890189412380      -4.46055412395147       2.74195411231892
F         0.62897681934133      -5.87064467010195       7.12347019324474
F         1.45320471830950      -7.77770171450359       6.25323330679825
F        -2.29837427919914      -7.63662073364326       4.43490689479419
F        -0.52578829613624      -8.86627540454986       3.85824728694193
F         1.10439050843333      -3.32117200133427       1.70540318254234
F         1.35297190841799      -5.52940369587982       1.54177496919892
F         2.51459569944274      -4.37382424310682       3.07948174046779
F        -0.45993791995594      -7.96098037959160       8.26076963213989
F        -1.97616169702048      -6.98671859228962       6.94159206595907
F        -1.00731059496379      -8.93907729715928       6.33833050390299
F        -2.40676675514166      -6.40501578846900       2.08915980803387
F        -2.16847106664440      -8.60510201514385       1.83223666602497
F        -0.42988032908445      -7.27094067483062       1.42383577123678
