40
C12H8F18NP optimized with ForceField in AMS.
N        -0.70443496721076       0.00462940312829       0.00771933488886
C        -0.02326143541285       1.19058684837216      -0.00662629614038
C        -0.02894215576249      -1.18457351329703       0.00072982856585
C        -2.16899441748599       0.00782543658912      -0.00878391479609
C         1.37420679753962       1.20526557528411      -0.00623506264650
C         1.36831547998289      -1.20584067495137       0.00146000369371
C         2.07112718162481      -0.00197454267531       0.00134373065993
H        -0.55824452271730       2.13294471818291      -0.01850008580602
H        -0.56833656363518      -2.12448431375046      -0.00541099657599
H        -2.57218978139865      -0.88578202144591       0.51550250937746
H        -2.56827936914917       0.90693144365033       0.50898795661934
H        -2.52857851112028       0.00470487168405      -1.05919541059560
H         1.91116029883225       2.14508515976252      -0.01287688009276
H         1.90054208299554      -2.14832902755556       0.00089428626813
H         3.15293133713446      -0.00479409707148       0.00517049670610
P         8.60582500684110       2.18871589560859      -1.33179190392069
F         9.66890734230987       0.85614313116084      -1.57170758557299
F         7.94489441177163       2.20154489934571       0.26042642321305
F         9.34582670174186       2.55932690402476      -2.84077468631821
C        10.12431510734416       2.73157204039588      -0.25457626263681
C         7.47901351357496       0.65388605401819      -1.68298293947156
C         7.52682018493617       3.66867583576146      -1.95126990669345
C        11.50026556596093       2.86212499972914      -0.96268003618756
C         5.95496728100407       0.85085188632491      -1.54148767076886
C         8.15638119593551       5.07516464504661      -1.88514834359115
F        10.30343459398561       1.81037938919101       0.77037517437443
F         9.85268984000515       3.94526370323539       0.34463825146748
F         7.80689878562764      -0.37707244875708      -0.80673491962945
F         7.71343853081442       0.21413788545794      -2.97830986067129
F         6.37958598875864       3.73294518832011      -1.17998579975919
F         7.12802156206740       3.44291741519518      -3.26216711210352
F        12.40505908594301       3.41110443240187      -0.07098816822184
F        11.44963124785070       3.68550460177507      -2.06693679088478
F        11.99228917129759       1.62724355900848      -1.34616081716655
F         5.33728342571528      -0.38133930963465      -1.67169031463731
F         5.62170352776037       1.36052304001633      -0.30013591829468
F         5.45346635190251       1.66863106717153      -2.53444486221075
F         8.19735356729320       5.53230039834694      -0.58145593140388
F         7.36635629654090       5.95312078822979      -2.60678138054732
F         9.42113247620042       5.10532034451965      -2.42901675308916
