24
C4H12F6NP optimized with ADF in AMS.
N        -0.32323840779282       0.18635367720516      -0.24888061448031
C        -1.59884069605070      -0.57715453286216      -0.00534169002514
C         0.47155937094145       0.22203229194291       1.01579938121491
C        -0.61322114101528       1.59814691166908      -0.68599521432503
C         0.45532228898808      -0.50678172045696      -1.32865362346287
H        -1.32363483117245      -1.55116088964926       0.42007052013122
H        -2.21802959588172      -0.00718667421515       0.69693132091549
H        -2.13856985663436      -0.69467851915495      -0.95184890660391
H         1.40204973565496       0.77575886296182       0.83843204315322
H        -0.12523849979891       0.72592062274248       1.78622239339658
H         0.69413034957831      -0.80650638909124       1.32604993234474
H         0.34799540213218       2.12145388268702      -0.77496565097371
H        -1.14801992442432       1.56070397070704      -1.64163427934265
H        -1.24638677017336       2.07341215828022       0.07177238431841
H         1.38875555785356       0.04560463077606      -1.49567601922022
H         0.66982312719756      -1.53153422603710      -1.00043107432806
H        -0.16515260161088      -0.50985514798602      -2.23361592457567
P        -3.69329045279208       0.60375721148646      -3.01139559948450
F        -3.91078277035933      -0.86811255736409      -2.26284127146030
F        -3.83836095075735      -0.09974503086104      -4.47753332530995
F        -5.28914668904126       0.92549943700638      -2.93093687335909
F        -3.36665476943036       2.06107162430468      -3.69307272840362
F        -3.46320839327075       1.28682656457987      -1.49490072055557
F        -2.01348126454018       0.26031261502881      -3.04373418626394
