34
C10H22ClN optimized with DFTB in AMS.
N        -1.37267923475399       0.42799439300198       0.03877705238346
C        -1.66569723366398      -0.97242394203153      -0.42162465657468
C        -2.40366291348914       0.69177441577160       1.09702228743383
C        -0.00446297223050       0.54780602112097       0.64410458137526
C        -3.15656158006460      -1.21143587233599      -0.16950904955861
C        -3.66735945964594       0.02598399718529       0.57877185645442
C        -1.53953993937196       1.38857189696639      -1.07947171269346
C         1.12884982827466       0.22694919768085      -0.32554756226147
C         2.44785371316807       0.14758452862467       0.45303861342083
C         3.61887279789469      -0.18086160003215      -0.47754882802715
C         4.93255591531067      -0.26759178883098       0.29706268263371
H        -1.07206760313763      -1.64529717111446       0.20190328399493
H        -1.38130789122949      -1.07499661349844      -1.46930895150220
H        -2.49233142224438       1.76563308946630       1.26302607973708
H        -2.06072633164508       0.18227380584108       2.00439256874310
H         0.01276292548225      -0.15666343699436       1.48457770711047
H         0.08816515345151       1.56874785303784       1.02468693867292
H        -3.27009894936304      -2.10131731764811       0.45290318603931
H        -3.70379460100124      -1.36473128976724      -1.10152897676644
H        -4.22503205991436       0.68915696582528      -0.08838726393485
H        -4.31662103040686      -0.24895293861305       1.41093988980833
H        -0.84644312219163       1.13756457134473      -1.87935404274850
H        -2.55937507730852       1.32951339219042      -1.45361377610508
H        -1.33623865257889       2.39514215950961      -0.71655577447827
H         0.94382584003777      -0.73252230145946      -0.81608937310938
H         1.20967951240284       0.99587353571559      -1.10092944351174
H         2.36424206301062      -0.62443892386899       1.22401801495945
H         2.63250532625143       1.10400645272373       0.95374512886413
H         3.69995358173621       0.59207334744773      -1.25000780207608
H         3.42758498924219      -1.13575118014430      -0.97863019921239
H         5.15071842745692       0.68208022414450       0.78765629261112
H         5.75147686580293      -0.50433111091456      -0.38251326029166
H         4.87542694173594      -1.04657252904831       1.05819352087262
Cl       -1.07784572591748      -1.82931123229665       2.55024177113697
