55
C17H18F18NP optimized with ForceField in AMS.
N         2.37256891167070       0.05668493487287      -0.50587083119090
C        -1.44313960310980       0.04856569929967      -0.68040012555934
C        -0.04361878547398       0.01983489893073      -0.05608168653047
C        -2.52647591160893      -0.02428144114577       0.40192117130765
C         1.04500765264653       0.10171318522168      -1.13020895943279
C        -3.92802344455094      -0.00101121833765      -0.21792069476683
C        -5.00664381993689      -0.07157892350722       0.85915768374519
C         2.99348798821466      -1.14783508378755      -0.31626845741589
C         2.96906407398882       1.21677027279357      -0.09212552051010
C         4.24631317232883      -1.21049798826956       0.29743790114041
C         4.21967603191300       1.18846773528484       0.52940045778262
C         4.85861463303320      -0.03457934327624       0.72645376162996
H        -1.55497543988889      -0.81500547074364      -1.37276310693971
H        -1.56744484424265       0.98789697201804      -1.26343359130489
H         0.06893613293548       0.87862028203046       0.64161021822585
H         0.08539204718213      -0.92193309723452       0.52156199247300
H        -2.39872200775949      -0.96158879756648       0.98752844066557
H        -2.41526739069197       0.84141904259656       1.09181470513016
H         0.92826626830977       1.04118918881439      -1.71579382803116
H         0.92871359910416      -0.74077642120729      -1.84843666622578
H        -4.06444907359098       0.93478451672388      -0.80279625475693
H        -4.04879855178363      -0.86664243855544      -0.90525738509057
H        -4.92449151840850       0.79846386847149       1.54492041116160
H        -6.00947814942240      -0.05492678413001       0.38284417724875
H        -4.90667750988723      -1.01047973038780       1.44433905057924
H         2.51835331263021      -2.06822154714417      -0.63418549845893
H         2.47653470657121       2.17133143515138      -0.23646687624078
H         4.73449225487191      -2.16424267762617       0.44550219674987
H         4.68773716127811       2.10757080088528       0.85748250261315
H         5.82543313711576      -0.07125206251481       1.21107296124031
P         2.44716505325033      -3.32852628419373       4.20700735035767
F         0.98045278035473      -2.63290170186007       3.63355407977799
F         2.17902600939106      -4.48008723469562       5.46113380871651
F         2.94142455603156      -2.50633220337153       2.78078328446004
C         1.67841721197531      -4.83256181969798       3.25349806810680
C         1.95433621795196      -1.95277280271335       5.47673050351886
C         4.37317780525944      -3.38436075863009       4.35873584388548
C         1.38043464389752      -4.65065721727632       1.74030805149694
C         2.81875261378550      -1.82583525661336       6.74790153652612
C         5.11958087385638      -4.36717404799474       3.43524055253851
F         0.46902773803078      -5.17214720517305       3.84799501312223
F         2.50665722495147      -5.93062804185126       3.37830857392367
F         0.65649795280921      -2.17732464781799       5.92749975224918
F         1.98722532236567      -0.71979301788177       4.83980770379189
F         4.70533583931035      -3.75944192323819       5.64773284607805
F         4.90001865923008      -2.11676227308335       4.15026915306132
F         0.95248730052718      -5.86221958526836       1.22660550076905
F         2.49625641223672      -4.26800634177268       1.02854198200096
F         0.37253459605967      -3.72797839945170       1.52435795901664
F         2.21763023743066      -0.91837145501566       7.60294078850160
F         2.91806176304283      -3.03107915623143       7.41731684023416
F         4.07923275713884      -1.34378935563044       6.45695268405115
F         4.92783126562842      -5.67112728847953       3.85100409533848
F         6.47641155759555      -4.10451970253538       3.50441997751816
F         4.73541682715057      -4.23905637658292       2.12006390362026
