56
C16H19F18N2P optimized with ForceField in AMS.
N         1.87981370982135      -0.88563732783619      -0.29410478034470
N         3.19015783045169       0.90695632696005      -0.18240493633079
C        -0.40720784445882      -1.80891303484878      -0.13588834150402
C        -1.10771982079931      -0.47938111187776      -0.44963129681033
C         0.96606600133970      -1.90325411293700      -0.81209002588074
C        -2.48443733966419      -0.40861742113440       0.22025406549359
C        -3.16898953573723       0.93124458434352      -0.07150829408143
C         2.39088387781056       0.16205136178217      -0.97042997059358
C         2.37829789831847      -0.80302800322870       0.95668411459905
C        -4.54750375890364       0.99853458763588       0.57902699256618
C         3.18976935265713       0.31118474004945       1.02592910120762
C         3.90407158332150       2.12289480810815      -0.54989563005828
H        -0.28858685170050      -1.92410640195355       0.96361283954585
H        -1.03480368135568      -2.64977964354854      -0.50101280510018
H        -1.22778036842869      -0.37781943442618      -1.55086565675001
H        -0.48354471229716       0.36448564339575      -0.08251718926343
H         0.84570496277756      -1.78809775480634      -1.91207792442239
H         1.39926394843752      -2.90964598981693      -0.62614585183261
H        -3.12196042832604      -1.23575057310780      -0.15931922743652
H        -2.36618583173138      -0.52900411713913       1.31989138555828
H        -2.54514709592349       1.76387862248711       0.32097079491826
H        -3.28284811583076       1.06332210717062      -1.16967113101225
H         2.17645139248632       0.38314097921369      -2.00886913142663
H         2.16535002855654      -1.49744947956322       1.75905834312668
H         3.73498735336044       0.66161370842490       1.89281101784231
H        -4.46025737503809       0.88773232792826       1.68096412708713
H        -5.01565916332520       1.98060515250832       0.35699333855120
H        -5.20183315877770       0.19443877633979       0.17972777580485
H         4.99470595599063       1.97341361886784      -0.40601262767903
H         3.71345771041725       2.38038715662649      -1.61365337198257
H         3.56221302630481       2.96374398717436       0.08956538280142
P        -2.93992757245594      -4.59200943298004      -4.27022984055109
F        -3.08824584889082      -6.28519350351384      -4.56167607547785
F        -1.85319590970150      -4.35129901981930      -2.95446429723439
F        -3.84337081115491      -4.82618087443254      -5.71558171189907
C        -1.19452566307072      -4.91841049525824      -5.03504749400937
C        -4.10940215162194      -5.23328297300757      -2.86734308607993
C        -3.56097557256936      -2.79283483019807      -4.53586990059425
C        -1.17082567314625      -5.26879005825096      -6.53934699021515
C        -4.51109468191371      -4.22940061257573      -1.75806716797560
C        -3.07652928193491      -2.04263606658939      -5.79100432834597
F        -0.60074384707394      -5.98395841104838      -4.36829876528323
F        -0.37137765392756      -3.82030652228350      -4.84217188144770
F        -3.50460107345223      -6.30275652464731      -2.21371600507711
F        -5.28242395642572      -5.69499099236027      -3.44514859504197
F        -3.18337352188275      -2.04012566360621      -3.43769821887265
F        -4.94456057706170      -2.80102110630703      -4.59843465960652
F         0.13225425876587      -5.54414450151473      -6.91448431166487
F        -1.61821364502607      -4.21766776970406      -7.30890236014428
F        -1.93731893510327      -6.38681812931188      -6.81280998671539
F        -5.16402920760184      -4.92051644433120      -0.75236444871148
F        -3.41166848959119      -3.61314755709894      -1.19556964647195
F        -5.38414624908433      -3.26857959715816      -2.22404337540283
F        -1.70131259375713      -1.98715989837501      -5.85408352168252
F        -3.54370041416848      -0.74122057515441      -5.73508570074296
F        -3.58181533430320      -2.61553829436503      -6.94351727214482
