45
C11H24F2N2O4S2 optimized with ForceField in AMS.
N        -0.22622138741237       0.29983218406926      -0.16493621607619
C        -0.91808432598995       1.27113312466378       0.74555727855818
C        -1.12774405694243       0.00752705389842      -1.32708806301413
C         0.12373347566055      -0.94771893813112       0.60203964598433
C         0.99956877095346       0.96376461472821      -0.72985693193208
C        -2.32458864346075       0.82327965401491       1.19267464162910
C        -2.52119803395649      -0.50576668309968      -0.92700809975966
C        -3.21112211030551       0.49360019738098      -0.00442588545687
C         0.92884015173232      -2.01360957280833      -0.18144613487278
C         2.12108881428928       1.28579978311331       0.28899820951476
C         1.23761367565200      -3.22009440265192       0.70264011551307
C         3.27848551773986       2.01394209149503      -0.39045677511801
H        -0.32715867723132       1.44226194676918       1.67066920955510
H        -1.02759998153718       2.26242305953340       0.24758347597870
H        -1.28698861297954       0.93339570810751      -1.92862112933119
H        -0.66738971323248      -0.71629025352181      -2.03075745246166
H         0.69303241056991      -0.68434979472563       1.52039120647936
H        -0.78754354845117      -1.44839349633605       0.98269298623484
H         1.43745672388649       0.34349822748601      -1.54352793430692
H         0.71590464968005       1.92105531303123      -1.22629732537784
H        -2.26503088866860      -0.04905614686052       1.87622482481669
H        -2.79718940129851       1.64806493485565       1.76900730364808
H        -3.13683836985994      -0.62824954768760      -1.84427969033932
H        -2.46188923162276      -1.50410030464903      -0.44682432514196
H        -4.17382478981300       0.06785539211151       0.35178397061152
H        -3.43476073558768       1.42633798216493      -0.56796773965269
H         0.35328873457221      -2.38119208448525      -1.05418765727934
H         1.89535250356033      -1.60449357840753      -0.53763459552697
H         1.74567050370666       1.93878111911600       1.10180680126892
H         2.52824443258361       0.35688441118259       0.73732762115942
H         1.83769312411792      -3.95795267174327       0.12931249931028
H         0.29595750545307      -3.70997947162493       1.02932103377301
H         1.81943219272142      -2.90832217540636       1.59615341383589
H         4.07707637869858       2.21957715466247       0.35342042541647
H         2.93174083016486       2.98109880631757      -0.81300077084593
H         3.70440232720699       1.38942302028823      -1.20442851631961
N        -0.85977726012565      -6.70684125603081       2.94303780284537
S        -1.62148998837737      -5.50960459375254       3.75730229923091
S         0.56593807330959      -7.31560163466053       3.46510679056087
F        -0.80677360917022      -4.06825522855439       3.51152569539630
F         0.31681076870597      -8.17036399380674       4.88301418705189
O        -3.03114202307525      -5.37798252008226       3.25444015582042
O        -1.63467679589341      -5.81602131442923       5.22892417651113
O         1.53165365110113      -6.19574605089117       3.73473230559769
O         1.13399794752529      -8.23379914704349       2.42030621681086
