30
C8H13F3N2O3S optimized with DFTB in AMS.
N         1.56274579518346       0.76019694761385      -1.16419661260058
N        -0.13966528924990       0.77129767550134       0.15423485292322
C         0.58438589014005       0.00859988292390      -0.66319959215868
C         2.61495020201262       0.28228560237797      -2.05687768976860
C        -1.27286148738228       0.30201999399005       0.94653044270137
C         1.50261607347490       2.00539321971845      -0.60383373551380
C         0.42815412782760       2.01242831950661       0.22848815710560
C         3.78946996756431      -0.26575939369511      -1.25363288302717
C        -0.78745825474240      -0.42502652725337       2.19635822103930
H         0.39672589226823      -1.02463115573965      -0.89660636212847
H         2.18137119869991      -0.49291293583888      -2.69595097639939
H         2.92637831509382       1.12413653586250      -2.68134552103790
H        -1.87479960132283       1.17522325509575       1.21088320639052
H        -1.86956245759625      -0.36264202476253       0.31381473903247
H         2.24194856105473       2.75773568375230      -0.81155122280446
H         0.04760564371701       2.77789006002667       0.88081463321241
H         4.22956129127607       0.52254114441086      -0.64576860027988
H         4.53882303362006      -0.65505853818309      -1.94143803015945
H         3.45340975209470      -1.06267456081579      -0.59233501834334
H        -0.12827160233063      -1.24688627563330       1.92180255195489
H        -1.64898944138333      -0.81431476724443       2.73702959370724
H        -0.23576768686013       0.25998644838693       2.83727902397294
S         2.66831798444750       0.75628241226860       2.06524631047373
O         2.19778431135427      -0.46203803908119       1.40816737097194
O         1.62630126666217       1.49193572489632       2.76104567320792
O         3.53113181165584       1.58161211387734       1.23538611015150
C         3.78171880362387       0.11765290296324       3.39729381613599
F         3.09885451457217      -0.64531617829539       4.24530441903253
F         4.33432382435042       1.11117439636864       4.08148989216381
F         4.75450203397411      -0.61715792159863       2.86680447764430
