46
C14H26F3NO2 optimized with ForceField in AMS.
N        -1.63030201265505      -0.29458515611493      -0.17945747046607
C        -1.91099984110217       1.12114221611780       0.21180449990687
C        -2.64178382794164      -1.21261403230645       0.43607113916924
C        -0.29230266343700      -0.71350801942246       0.35750960304341
C        -3.35494298589209       1.56468047527056      -0.07737452886841
C        -4.10554648294224      -0.81079891172955       0.17777700415140
C        -4.35595353758884       0.63346976614583       0.59749309233344
C        -1.64194143569172      -0.44907831897846      -1.66047510807311
C         0.92849413570538       0.06384216860212      -0.19301522638705
C         2.22731732015166      -0.46034326795850       0.43501785124559
C         3.45218870687441       0.26847575831530      -0.13113838833735
C         4.74574933641892      -0.26878356354122       0.49260480516162
C         5.97031272365853       0.44811151318105      -0.06824867048090
H        -1.24194079425946       1.82418718635185      -0.33010146285724
H        -1.72084111858549       1.26627758289076       1.30031060172932
H        -2.50828672371018      -1.24836697825674       1.54275451561329
H        -2.49803232629922      -2.25484089601684       0.06854232630167
H        -0.28016357155309      -0.61078381135157       1.46776477959413
H        -0.12466675036870      -1.79564140851210       0.14697538476137
H        -3.50164189673394       2.59470068301935       0.31390150264997
H        -3.54171526887181       1.59884332982311      -1.17180643369303
H        -4.38174114748698      -0.95561580080077      -0.88718772333907
H        -4.76983851241327      -1.47571671179349       0.77148642638422
H        -4.26318562135544       0.72305238956907       1.70256816467156
H        -5.38831557175612       0.92870909197429       0.31153081544517
H        -1.01420780373649       0.32101208475744      -2.15712663313329
H        -1.27353762465948      -1.45522878855805      -1.96118244147186
H        -2.65445797485439      -0.32895517381688      -2.09145081548345
H         1.00411305259381      -0.06258107262009      -1.29285170714564
H         0.84144731354665       1.14412236823737       0.04446367565933
H         2.18831942541012      -0.31281773774376       1.53727316872789
H         2.32213107974663      -1.54944378977770       0.22815332084371
H         3.36385684324406       1.35681135063088       0.08210456151810
H         3.48908474956871       0.12596826758184      -1.23391008559312
H         4.83992010214861      -1.35688935458636       0.28296083441303
H         4.71785635589326      -0.12394463994360       1.59465098657412
H         6.05704488982488       0.26690771186323      -1.16097877914856
H         5.90037649535726       1.54064857642910       0.11988169990634
H         6.88390110491517       0.06255010808710       0.43000327269611
C        10.14130565250024      -0.68575935375891       0.36087694502439
O        10.01846807374807      -0.02870783418149       1.38245728184934
O         9.20058269228341      -1.34604839437016      -0.04866494108481
C        11.43671522770955      -0.68551677594268      -0.39242089394260
F        11.90191629917753      -1.98229353329108      -0.50976905554079
F        12.38400381824909       0.07566047918351       0.26992188941829
F        11.23463191676882      -0.15768502235775      -1.65409652504655
