38
C12H18F3NO3S optimized with ADF in AMS.
N         2.00000287753790      -0.06116424853941      -1.15900746995520
C        -1.72586329854327       0.53156695492028      -0.80567716192860
C        -0.31546603597938       0.22642985609497      -0.30558280692139
C        -2.78958218433651      -0.07083576104405       0.10813651091246
C         0.73913197682351       0.71333883688240      -1.29685998942489
C        -4.21089818140208       0.13946953175707      -0.40866040942834
C        -5.25775544675984      -0.49890291108487       0.50016584326018
C         2.41829501664999      -0.83372707054099      -2.18056190647019
C         2.65109663276264      -0.05341078239881       0.02876651424061
C         3.54532879364330      -1.62928875798553      -2.04104427055765
C         3.77764053603844      -0.82590354601026       0.21062558405984
C         4.23583287071401      -1.62473741368248      -0.83881763694618
H        -1.82966415774251       0.08721132649367      -1.81103015544144
H        -1.87879171730725       1.62305062121314      -0.90259090789319
H        -0.15301707188765       0.67442751332566       0.69063835883928
H        -0.21059021096891      -0.86487742297783      -0.21659451144511
H        -2.59476111140264      -1.15498132804602       0.19976893525777
H        -2.69902263752943       0.35636089102162       1.12530906803315
H         0.99299049455987       1.77793634169691      -1.17066471473872
H         0.39335565358173       0.54192070603991      -2.32330307497567
H        -4.40974054253026       1.22266802340003      -0.50971866618465
H        -4.28746947000524      -0.29040976165057      -1.42406676423748
H        -5.20657664096612      -0.07414487631196       1.51606634141567
H        -6.27818687865410      -0.34261485956395       0.11889105617229
H        -5.08932511069829      -1.58484126322073       0.58230064242490
H         1.79874767273054      -0.83760149147678      -3.07233930023345
H         2.22311003436855       0.57464354986557       0.80623568971918
H         3.82800520553005      -2.27026947388188      -2.87335978471773
H         4.28504132757314      -0.80840234314265       1.17438567689062
H         5.11772865755374      -2.25292619161262      -0.70782101652150
S         0.25173956961823      -3.35250211961643      -2.51380418796853
O         1.64727741994852      -3.58833486637839      -2.93686417493408
O        -0.76463688926825      -4.25833019223342      -3.03749965749888
O        -0.12054321194942      -1.91178889928857      -2.48664912218140
C         0.30685182142463      -3.76527300715734      -0.67962960454812
F         1.26893013935681      -3.02001868637041      -0.03119430002866
F         0.59533933137182      -5.06931159409913      -0.46346259354972
F        -0.87898663475627      -3.48958875619615      -0.06659497669518
