42
C12H21F3N2O3S optimized with ForceField in AMS.
N        -1.12600607777103      -1.73640957804364       0.23265322992420
N         1.09650096826541      -1.70105964127991       0.29097471392068
C        -2.51711735290394      -1.46291820788725       0.58717461198850
C         2.45848655549227      -1.39463246159278       0.72381196106491
C        -3.02673316539381      -0.20081118943929      -0.12226564566131
C         3.04208307098934      -0.21849764275639      -0.07125167549602
C        -0.03758550324718      -1.45825573597810       0.97599138135342
C        -0.66572932269684      -2.18142662010898      -0.95428119902923
C         0.71348772417793      -2.16312819054908      -0.91679507803929
C        -2.27017918943629       1.05560960443808       0.33341435749875
C         2.21557748834940       1.06316741964953       0.10766835436813
C        -2.85236918414809       2.31485258744930      -0.29970360520120
C         2.86537586150555       2.24499437427301      -0.60448370338138
H        -3.14718843411548      -2.33108761220347       0.29658082529324
H        -2.61224944778676      -1.33443456806243       1.68800490672171
H         2.46829805963430      -1.14742609479310       1.80847196429516
H         3.09770267227355      -2.28986733609983       0.57560298099461
H        -4.10791015055026      -0.08190988412072       0.10751063522662
H        -2.92142315204205      -0.32449114712764      -1.22245458998169
H         3.08873610880704      -0.48651331628415      -1.14935012106054
H         4.08097583725639      -0.03925523535036       0.28177180779848
H        -0.07088553511795      -1.02475132899014       1.96824010344878
H        -1.28549278062883      -2.46143442965684      -1.79623765342300
H         1.38505753691538      -2.42683283943019      -1.72353139350049
H        -2.32607007417420       1.15012815629540       1.43975819515790
H        -1.20218539273396       0.97829900261002       0.04112216474482
H         1.19945075331765       0.91577675772097      -0.31511735201823
H         2.11712251376654       1.30237461583462       1.18894219217291
H        -3.90955352990416       2.44961919471066       0.01282974788535
H        -2.80033370247781       2.24947576737091      -1.40739569696140
H        -2.26857226586272       3.19971664335841       0.03154961815565
H         2.96637276160031       2.03300982818919      -1.69031808310023
H         3.86856575815401       2.45008438519465      -0.17430238334711
H         2.23239632210433       3.14855365403616      -0.47674001765746
S         3.74594074009668      -5.33636947337654       2.19606191364460
O         4.61608599950730      -4.11483337646900       1.86638861755743
O         2.31775221992212      -4.82576776142855       1.95329059570801
O         3.83188959792786      -5.42060853314681       3.72710776337182
C         4.18844686893001      -6.85821730373543       1.31261962391942
F         5.51642996935727      -7.15818109817842       1.54887891751950
F         3.99165246749183      -6.67808078203366      -0.04312125456950
F         3.39549568154895      -7.89810685960821       1.75877518809348
