24
C6H11BF4N2 optimized with ADF in AMS.
N        -0.62016483434001       0.67509176999772      -0.41534581177055
N         1.46266135889608       0.19298724796880      -0.02799370540681
C        -2.09112292610150       0.54116552704493      -0.53632058904635
C         0.22560807599516      -0.32173542769673      -0.12925479312188
C         0.08015251975397       1.85801240181690      -0.48812527084030
C         1.39187523974725       1.55513451711959      -0.25403082479085
C        -2.68015892922055      -0.12626630712293       0.69440576282479
C         2.66048885985144      -0.54685243341199       0.34824435926573
H        -2.47317760375102       1.56698349272424      -0.63775952326060
H        -2.29231290718107      -0.01628469287606      -1.46624844612319
H        -0.03762483178724      -1.36144975606412       0.01305763652838
H        -0.45374212637352       2.80210772832503      -0.61531203733449
H         2.26715860287754       2.19041946742015      -0.19462707792346
H        -2.38968501600833      -1.18588619354855       0.77578391350735
H        -3.77536425373598      -0.06721380057482       0.63467719661839
H        -2.36775381124070       0.43554749266326       1.58585221584067
H         2.41787953556702      -1.61407220450524       0.40229639352537
H         3.44223647929390      -0.39025350951012      -0.40558810703770
H         3.00713131256692      -0.20144363941235       1.33157276121762
B        -2.42195236381489       3.45731418668646       1.22622295840110
F        -2.07992676156536       3.73410092757107      -0.16726926193007
F        -2.50954943156417       4.65104988666969       1.93980144431279
F        -1.37668071054446       2.61986846115517       1.75486215320415
F        -3.63855286492047       2.73061645415988       1.23418159033991
