47
C13H28BF4N optimized with ForceField in AMS.
N        -0.69421980452432       0.53734937288729      -0.20339871672092
C        -1.66414738608762       0.27898057739287      -1.31809939136909
C        -1.25618315354608       1.61347218595439       0.67781714944482
C         0.56626135358725       1.04934343353187      -0.84613239138687
C        -0.43776290890420      -0.69821582793738       0.61808483696314
C        -3.08159205661403      -0.08543684495089      -0.84703199968081
C        -2.67973039045234       1.31987920271050       1.19700854817516
C        -3.64204851454013       1.00895138936468       0.05461579847738
C         1.76444883999408       1.29318730193373       0.10512188202222
C         0.22874528069470      -1.87805440134766      -0.12997122486410
C         2.96818084336944       1.83626114605674      -0.67820291440429
C         0.43875133596147      -3.06535903069920       0.81937217798331
C         4.17694693865076       2.04637980135690       0.22949654607314
C         1.09948334461790      -4.23874217877185       0.10189175666213
H        -1.29980225078110      -0.51444844789483      -2.00303175613659
H        -1.76200812217492       1.18832592610048      -1.95683296827909
H        -1.29552724451592       2.58468604805710       0.13259116006336
H        -0.61274244132047       1.77537445539533       1.56969126248248
H         0.35932939682174       2.01124730456982      -1.37100530800684
H         0.90000990426993       0.35506918906430      -1.64970997994597
H        -1.37829547339872      -1.08697512277808       1.05358353510546
H         0.18655897597758      -0.44635404669668       1.50358887314682
H        -3.09655597858997      -1.06638201297993      -0.32889015803830
H        -3.74078961038053      -0.18418460194721      -1.73668942267706
H        -3.05596477963557       2.21515416829389       1.73604126639211
H        -2.67258288477452       0.48600232273842       1.92979091089626
H        -3.81488036162339       1.93046352955033      -0.54393997962190
H        -4.61925342555741       0.68164823936029       0.47110518391744
H         2.07524643985038       0.34714192205739       0.59354930290002
H         1.49630513676708       2.03033088236127       0.88930854597674
H         1.21687104125412      -1.58036781584689      -0.53621535193968
H        -0.41453884726181      -2.22021057663203      -0.96548352207529
H         2.70181858236526       2.80684808114034      -1.15079442032705
H         3.24747735654375       1.11991250530231      -1.48172990536336
H        -0.54188135602099      -3.40023221247423       1.22332275590889
H         1.08275507710847      -2.75732278246601       1.67202182178106
H         4.48545833498254       1.08383494147932       0.69059416919478
H         3.93660738631148       2.77812679037525       1.02986255186424
H         5.02553257952393       2.44001182702751      -0.36875461563147
H         2.09702752509925      -3.94094337269808      -0.28573971686580
H         0.46394359419790      -4.58146334338273      -0.74244269808781
H         1.23123470749558      -5.08190019531125       0.81205282662582
B        -1.59839417410744       2.63982711507452       5.38413333386608
F        -1.57966452053533       3.96272211695685       5.90033006559237
F        -2.42763642621464       2.59452644703954       4.23397682513236
F        -2.10923934782355       1.75375937029407       6.36938795274028
F        -0.27899726115960       2.24891539218763       5.03267927653441
