32
C10H16BF4N optimized with ForceField in AMS.
N         1.74196406923151      -0.00936728059712      -0.40463518043691
C        -0.65979237985936       0.00221903399680       0.11633778502922
C        -2.07814885419074      -0.04333158855688      -0.46276488939563
C         0.39729480085458      -0.06849809175139      -0.99014157880406
C        -3.12578215927350       0.02607627015674       0.65403010896063
C        -4.54214600588766      -0.00866595954380       0.08732059570114
C         2.37856148787093      -1.16635882586390      -0.04587931847802
C         2.33440886169888       1.20478354960245      -0.18648748481715
C         3.64156642971618      -1.12500877274538       0.54962014634927
C         3.59700445594008       1.28119592301290       0.40617788715326
C         4.25106792030025       0.10772306554311       0.77817474117927
H        -0.51574288715671      -0.85400342644235       0.81114097835541
H        -0.52458981141310       0.94583093178487       0.68891765716856
H        -2.21201719936477      -0.98720905541843      -1.03577886337896
H        -2.22011739239060       0.81518062182729      -1.15555018273286
H         0.27119572248496      -1.00965709184193      -1.57109499430469
H         0.25336046210109       0.77228522234010      -1.70531009939842
H        -2.99445229805793       0.96572335777918       1.23375682301101
H        -2.99431945621650      -0.83486510731949       1.34525027091240
H        -4.70938558613442       0.85828789794414      -0.58660384239994
H        -5.27598123216940       0.04186090984355       0.91913086416392
H        -4.70917769426629      -0.95071005894491      -0.47690641035863
H         1.90756239143866      -2.12876664266496      -0.20872818735256
H         1.82810937530035       2.12288007188387      -0.46092680612370
H         4.14124193554486      -2.04135234879820       0.83548382273570
H         4.06199458974245       2.24273223288559       0.57996223349834
H         5.22724743786521       0.15355330582112       1.24203901251117
B         5.60641964718470       1.10399799019539      -3.03232366757734
F         5.27804566172104      -0.03920662403960      -2.25668244569219
F         6.66505112699305       0.78254312444599      -3.92299676851975
F         6.01422737810510       2.15894236944786      -2.17329127917689
F         4.46862059348713       1.51335718721740      -3.77704010188160
