37
C11H20F3NO2 optimized with ADF in AMS.
C         2.59971283591484       0.18620313275696       0.48628840730006
C         1.56403650316450       1.19158700102952       0.02460627476132
H         0.43251437256391      -1.03932130428033      -1.56470502697162
H         0.11801470287768      -1.73233728012325       0.07636038135300
H         2.67611839988777      -1.03271316916514      -1.29633351581545
H         2.50842772556087      -2.00101492354719       0.20467961037228
H         2.56053913481084       0.02571383117284       1.57648754169062
H         3.61425871994840       0.53046079839498       0.23787105224195
H         1.42410009559125       2.07252958902780       0.66648291240923
H         1.75587111995232       1.47380908232992      -1.02364374053055
H        -1.19220826149877      -0.33123632593657       1.35671990603052
C        -0.29847719783459       0.30296578426431       1.37594799002030
H         0.45648040528618      -0.14397709088798       2.03409878535097
H        -0.56029298589945       1.31106173681317       1.72556537931154
C        -0.71274984335853       1.11317627597864      -0.93968264714026
H        -0.68081947712668       2.17104251862095      -0.62899372474986
H        -0.23441801813617       1.01597026328981      -1.93266460718154
H        -2.63759221140881       0.80180288159562       0.04472090841471
H        -4.06369105852988      -2.11501125746948      -1.92696093972167
C        -2.39888156456879      -0.81596939630327      -1.39116394448042
H        -1.85949425391093      -0.99551145516220      -2.33462815723908
H        -1.99918187187980      -1.53722839222290      -0.65629697779671
C        -3.88869241059685      -1.08221644553597      -1.59253818194166
H        -4.30107411691302      -0.40508870035996      -2.35729739361087
N         0.25895322483750       0.40294707446085      -0.00279992997283
C         0.68432197578935      -0.99061196840435      -0.49977722095736
C         2.20734039105607      -1.07368864399861      -0.30235473280971
H        -4.45620726909409      -0.92392155762998      -0.66068635764820
C        -2.14943791878647       0.62126386081066      -0.93117108852852
H        -2.66011308597555       1.29937648354458      -1.64083541826584
C         1.48177897839477       0.22144828704586      -4.12282373562861
O         1.41804172304262       0.52453988957771      -2.88874528910455
O         2.39262131529479       0.32418994975896      -4.94774607477333
C         0.14159664877642      -0.42362940183044      -4.63303579474138
F         0.11820514365443      -0.70556401261388      -5.95507054064095
F        -0.95753143871535       0.37834947918160      -4.37885566477820
F        -0.10992903397075      -1.61815033098324      -3.96822410832732
