45
C11H20F6N2O4S2 optimized with ADF in AMS.
N         0.06806976807859       0.39135851895955       0.33761642878273
C        -0.63800525183640      -0.84496961513629      -0.17343818534573
C        -0.76341611260987       0.75755896434306       1.55839157918003
C        -1.00338747228229      -1.63874125622996       1.08026831794881
C        -1.10090006923686      -0.58187081652585       2.21368422047006
C         1.48043939868262       0.05578944645705       0.79029044980241
C         0.05365475267007       1.48367554573350      -0.70571222682297
C         2.46664629838258      -0.28675240725045      -0.30983745028595
C         0.72115504483164       2.76929594654075      -0.26385060123904
C         3.78888975330621      -0.71513344850934       0.33474885948694
H         0.01308936330167      -1.36738500188277      -0.88512834684082
H        -1.53421039741413      -0.48806960925286      -0.70397521680281
H        -1.65833106229967       1.26711491446117       1.16853193813461
H        -0.18853677573462       1.43212552113199       2.20682766091352
H        -0.23340223704671      -2.38884327355414       1.31124157126273
H        -1.94731717746769      -2.17988884701657       0.92046768705434
H        -2.10639128967043      -0.53977247750478       2.65638083560492
H        -0.38576638931991      -0.79899311659984       3.02019484737276
H         1.38699513383581      -0.77074232114809       1.50826274787420
H         1.81867391792601       0.92001726684925       1.37144346250198
H         0.53519846567380       1.06204756466325      -1.60108007237182
H        -1.00978269612424       1.64762704700497      -0.94012356415613
H         2.09109940199974      -1.10240542762828      -0.95153145321585
H         2.64383917793087       0.58686215781206      -0.95908700739313
H         0.31322802369318       3.15568461700141       0.68059830470032
H         1.80503249807410       2.65420197969586      -0.13702362756105
H         0.55516827573443       3.52721390057489      -1.04487469850127
H         4.17762046873433       0.07052081135940       0.99839841102877
H         3.65356798810697      -1.61887316356737       0.94759217367661
H         4.54366769272550      -0.92633979273172      -0.43620763738268
N         1.67667186119067       1.36167663711305       3.69746354791384
S         2.59329888756228       0.15699010276657       4.25282820110125
S         1.98865798914882       2.93637628935388       3.81734713002753
C         2.57619796717710       0.22974069921171       6.14503552182663
C         3.55678883065585       3.30806878105817       2.79765164112241
O         1.85195141035268      -1.06870098745465       3.93997811648090
O         4.00460599200249       0.25331331554937       3.89483628886026
O         2.32587982190184       3.41640256012737       5.14808131044413
O         0.93451645596959       3.58555313249297       3.03407582820785
F         2.94364481058198      -0.98822659126590       6.61601188077387
F         1.33652597450887       0.51704919553021       6.60270423466980
F         3.44439181040730       1.14766710504778       6.60510217091725
F         3.52890373022301       4.61168771819541       2.42644239680846
F         3.59910991953454       2.55596819024245       1.65359476596986
F         4.68132837013767       3.08310540628174       3.49407319699949
