35
C9H17F6N2P optimized with ADF in AMS.
N        -0.15184837592510      -1.66138916173113       0.11264246343180
N        -2.04265882928606      -0.59286225093044       0.20228549189260
C         1.27901133565467      -1.98210690588160       0.28901204195957
C         2.16717136217003      -1.09625852341650      -0.57725472009122
C         2.18068900564574       0.38630738780298      -0.21888347576423
C        -0.78475558361064      -0.62063936360377       0.67208684569244
C        -1.01592140754527      -2.31553803987164      -0.73963931134504
C        -2.20370373527095      -1.64208503374827      -0.68294100692067
C        -3.01461841034758       0.47748817390244       0.45480602651141
C         3.16092386176501       1.15493812916473      -1.10561091028593
C        -2.90154418130737       1.58356729755603      -0.58485499509112
H         1.50236245450347      -1.88013211630359       1.36301713521606
H         1.40100792633212      -3.03162919814899      -0.01338147406134
H         1.87188682991187      -1.24447441237913      -1.62785737752156
H         3.18606887109936      -1.51253132848594      -0.49150392943792
H         1.17184574517627       0.81975793365873      -0.35371160131104
H         2.45256180310982       0.52116028518565       0.84632377092162
H        -0.35752562674785       0.07662185247362       1.38131773580463
H        -0.69486061044712      -3.18324566601490      -1.32200846302825
H        -4.01190099361334       0.01226433056602       0.45066863802335
H        -2.82998841965087       0.85360382655576       1.47215180491498
H        -3.14255977803181      -1.82223934358181      -1.19353832351790
H         2.88713453635906       1.04254939981951      -2.16617469180043
H         4.18219796185148       0.76174021793684      -0.98419726624771
H         3.17641107966225       2.22815973111630      -0.86380558164278
H        -1.90415375508924       2.04681633433103      -0.55611785429725
H        -3.65122783486962       2.36198984239350      -0.38434187228305
H        -3.07061292361281       1.18959314140164      -1.59725573944018
P         1.34807380282771      -4.00285136757744      -3.31828342638822
F         0.69981605400510      -2.46706052730089      -3.06493987041113
F         0.17414217108786      -4.60623518028118      -2.25499845312340
F         0.31160961866225      -4.21668366139242      -4.56980335017215
F         1.95489081882441      -5.50849799083197      -3.50674892203597
F         2.48676350256385      -3.35264045949259      -4.30099374099997
F         2.34069306904326      -3.76241905699056      -1.99477209215001
