36
C10H17F3N2O3S optimized with ADF in AMS.
N         1.09890293467593      -0.00895940891060       0.23272408651692
N        -0.62163803443616      -0.02194855956318      -1.08512065521571
C         2.34643995988891      -0.43651505950436       0.87929373591753
C        -1.58584531124416      -0.50654819383043      -2.08691519914578
C         0.52440269095754      -0.65053599957617      -0.79272720709381
C         3.57525368089557       0.23872903363982       0.27815491540678
C        -2.92209261972732      -0.87125221780389      -1.44736647961933
C         0.29933675606245       1.05395706199423       0.60373690160381
C        -0.78841839750971       1.04428107081507      -0.22134996651705
C         3.79790291678421      -0.11203947462122      -1.19024858608253
C        -2.80760428103440      -2.00870512649248      -0.43674481302102
H         2.37546916146281      -1.53161379709941       0.77095295132433
H         2.24077875191142      -0.20915742546378       1.95025882057901
H        -1.12261797833814      -1.39735000139478      -2.53922599406722
H        -1.69721040237446       0.27521717027062      -2.85455940444118
H         0.84884562224419      -1.57586486315940      -1.28566971040110
H         3.49618469053466       1.33309328375307       0.40716821117409
H         4.44021429193557      -0.08874129638819       0.87988618827110
H        -3.36730817341731       0.02694342187502      -0.98195116075714
H        -3.59873149147316      -1.15437647842222      -2.27216509186507
H         0.56181449102123       1.70886548885128       1.42546478137146
H        -1.65902854570494       1.68659722986579      -0.25356893364252
H         2.97393412680854       0.25719445017191      -1.82096279754983
H         3.87039088335885      -1.20163760645364      -1.32777166956238
H         4.72712513660351       0.34432168858323      -1.56153711582275
H        -2.10180739057933      -1.76738147410711       0.37277389313556
H        -2.44505409347025      -2.93049588894378      -0.91598502253989
H        -3.78710339507299      -2.21879771624964       0.01712145605334
S         0.53318911397268      -3.99719789240146      -0.53703788461283
O        -0.32697203639413      -5.16639609623933      -0.38775663538596
O         0.58282791913191      -3.05712412817088       0.60652464065543
O         0.46142334316421      -3.30542607800986      -1.85612657828438
C         2.27784256645441      -4.68688784035329      -0.55608403206302
F         2.45704964006487      -5.57730600147588      -1.56009138338563
F         2.57973073660661      -5.29897518844977       0.61641210316296
F         3.19180478083637      -3.67348331363530      -0.73333175139620
