35
C9H18F3NO3S optimized with ADF in AMS.
N         0.54432529085522      -0.15302150735391      -0.45206481350382
C         1.45258455481521      -0.15507465300537      -1.66855073746589
C         1.52323255722610       0.14277491489681       0.67547530975893
C         2.42342032955664       0.99903006709731      -1.44083738380833
C         2.52151151952039       1.14787204649829       0.09903271122631
C        -0.10362291237217      -1.50236855614708      -0.22935731407096
C        -0.46627917799228       0.96306757329437      -0.60057383304223
C        -0.99446482888953      -1.95326174199635      -1.36641817346657
C        -1.50138495095594       1.04386169329984       0.50358224794194
H         0.84047469792130      -0.07692100007470      -2.57561018207831
H         2.00406903433566      -1.10360058960218      -1.63750850993986
H         2.00692861946102      -0.82002339734339       0.90351203059720
H         0.96144901006961       0.49146177170438       1.55107162264781
H         2.07223990365619       1.92840434053203      -1.91463209678031
H         3.39537360901332       0.73528895494591      -1.87978202743492
H         3.52851141446410       0.88752742589118       0.45358176980080
H         2.29985544924757       2.17817628631808       0.41629331814728
H         0.73420862947643      -2.20003082719780      -0.06481731648264
H        -0.65511596521930      -1.42663320977137       0.71916117236443
H         0.11837842137113       1.89147539448210      -0.65506325201939
H        -0.94874778523292       0.81368706129705      -1.57715472099748
H        -1.38058295294467      -2.95183489008356      -1.11275488646182
H        -1.86050428277397      -1.29552076602371      -1.53273662362280
H        -0.43142897961360      -2.05963007026673      -2.30398788226146
H        -2.11096284821680       1.94486762369262       0.33736466928363
H        -2.17987659797362       0.18033540339619       0.50383543554284
H        -1.04772580748816       1.13679283267280       1.50031383213921
S         3.64013757011584      -2.94857499762864      -0.03487990079890
O         2.41615942167398      -2.95238868987898       0.80818636877540
O         4.80403226079867      -3.63400722360068       0.51629400744557
O         3.88743722891963      -1.64241195300153      -0.69040473056888
C         3.12319054396694      -4.03021052053777      -1.48475120060301
F         2.00300604556209      -3.51541636174513      -2.10966473932767
F         2.81093136684404      -5.28917397947365      -1.08927285845066
F         4.09847712490186      -4.10853087738643      -2.42364707238544
