34
C12H16F3NO2 optimized with DFTB in AMS.
N         2.22371815193418      -0.07358283781807      -0.35051281729652
C        -0.07866662612604       0.23389358743571       0.48191815914159
C        -1.54901490375699      -0.10262829299778       0.22542482557805
C         0.81334392840073      -0.38990435749098      -0.59697549570991
C        -2.44439812429871       0.50048742927851       1.31294044690446
C        -3.91430483507305       0.16054865517607       1.07514261184611
C         3.00244846437535      -0.97326118179157       0.31149904804951
C         2.66144321241063       1.19262915540475      -0.59452308816722
C         4.39029091392471      -0.68340322250528       0.42256059497858
C         3.95764901444837       1.53846879477794      -0.36742029171226
C         4.85271427120248       0.56386401292437       0.12764793733998
H         0.22346687392621      -0.14488947960448       1.46111913811028
H         0.06138356456037       1.31909149945066       0.48273784961565
H        -1.67575102981085      -1.19068495811447       0.21010027056454
H        -1.85108813707041       0.28250527950186      -0.75531969054658
H         0.70545712281083      -1.47759454808317      -0.59976984697275
H         0.54547688971776      -0.00711435672543      -1.58709800700334
H        -2.31847341372765       1.58830813989775       1.32480254003648
H        -2.13452289965031       0.11698480241251       2.29026012515287
H        -4.24691607162564       0.54960863033905       0.11157243316235
H        -4.53021365836550       0.60152894930400       1.85902187401279
H        -4.06314264410537      -0.92010401134792       1.08311352527213
H         2.67089813202118      -2.00522743811238       0.26758169460415
H         1.93799968304819       1.87570987155992      -1.02293576132374
H         5.03841171300512      -1.45256755846889       0.81945297667087
H         4.29889946688570       2.54021656784343      -0.59122869895227
H         5.90159506078299       0.80820721832747       0.24244013565039
C         3.07611229724333      -0.73437469529311       3.07827354376180
O         2.28502366129449      -0.82400154828610       2.09856887743198
O         4.27057126752659      -0.89510745420242       3.14488194212657
C         2.28959833308199      -0.30011290444502       4.39685591891129
F         3.01853151428883      -0.46353132733873       5.50019433017459
F         1.15519278895930      -0.99390112186087       4.54937968210896
F         1.95324302656118       0.99912365545264       4.31897399527863
