44
C12H23F6N2P optimized with ForceField in AMS.
N         0.19462420344905       2.27967285668924      -0.21025135329581
N        -1.87862397551732       1.47579033261342      -0.18162612661844
C         1.57288802021704       2.51203937297461      -0.63986598618298
C         2.53746467262538       1.52801505635118       0.03841214472012
C        -3.07970047922836       0.74551534146336      -0.58414501052835
C         2.14439184650805       0.06676951879393      -0.22608386419579
C        -3.14360905322965      -0.62888350789059       0.09666213846499
C        -0.77829525769699       1.68661170766695      -0.92951158606255
C        -0.31072518884885       2.46075482709439       1.02660775715186
C        -1.59777575407650       1.96290489586858       1.04398321661520
C         3.17554919002494      -0.90651875616771       0.35150258485967
C        -1.98535048847279      -1.53821097030391      -0.33905854926996
C         2.72621805871388      -2.35294572520518       0.16081727583195
C        -2.07304028243006      -2.90699360840930       0.32794317663744
H         1.86613554704777       3.55383378869002      -0.38813943474812
H         1.65103927297380       2.39798971142912      -1.74366413776883
H         3.55983060388496       1.71400000774284      -0.35501799967624
H         2.55030447991852       1.71857895577070       1.13372358950988
H        -3.97742080451537       1.33859681677548      -0.30631087490929
H        -3.09445658962947       0.61238253329758      -1.68852663082740
H         2.05143822974252      -0.10205408129946      -1.32158351419863
H         1.16153487947670      -0.13615947842444       0.24915173342601
H        -4.10828138611725      -1.11079221339298      -0.17387041560856
H        -3.12484419777099      -0.49684915662776       1.20056773329170
H        -0.66275129915070       1.35158290180373      -1.95300656900448
H         0.23056059858718       2.87961434017435       1.86501241782414
H        -2.26200215335277       1.92139554039422       1.89747270141102
H         3.31065427131791      -0.71237805199916       1.43795036615811
H         4.15134009847589      -0.76139444505561      -0.15889345716717
H        -2.00567213011768      -1.67141698496369      -1.44258227164902
H        -1.01623028665477      -1.07614699341970      -0.05929091626369
H         2.59888604504658      -2.57842788800341      -0.91952139634600
H         1.76318959880929      -2.53051750190353       0.68640546537542
H         3.49130795504847      -3.03931379359295       0.58025759407717
H        -2.03120055058714      -2.80047213137599       1.43294938968180
H        -1.21705641874814      -3.53428040825938       0.00043988428952
H        -3.01788568493147      -3.41610073599269       0.04223508511938
P         7.48979763915330       0.06017708203080      -0.05390655957141
F         8.97047183195268      -0.81008878154108      -0.01642173180108
F         8.19771210621911       0.99137135942242      -1.31213611825932
F         6.76668663320593      -0.96074972182331      -1.23135099601601
F         6.19708192016390       1.19052521727180      -0.07453982129395
F         6.70531403726988      -1.01367756103445       1.03373577768666
F         8.09775712844353       0.95809147256755       1.27850793483106
