61
C17H24F18NP optimized with ForceField in AMS.
N         2.03338020450086       0.42426027517278       0.11773821514782
C         2.25448250671695      -0.87036091251469       0.81574347428450
C         3.15753121423610       0.54969860815883      -0.85930839911205
C         0.73133266883637       0.43753516798928      -0.61726051563963
C         3.70435391950301      -1.25779199428091       0.61420052798875
C         4.03907389857534      -0.68510645869909      -0.73736981087569
C         2.09833891811783       1.54593167491803       1.09030394787903
C        -0.51812170484957       0.27750264556030       0.28015873716212
C        -1.77463036902861       0.06558246823108      -0.57410413934757
C        -3.02358144080709      -0.08346855190490       0.30235882595480
C        -4.27753803331018      -0.27318491250689      -0.55898409049119
C        -5.52376375702993      -0.43049095474975       0.30703074205006
H         1.63307053709969      -1.68268117852893       0.37668565768178
H         2.01218186364524      -0.82764460459584       1.90215560179753
H         3.78838991738139       1.44992134484234      -0.67104578398552
H         2.81242319117220       0.64384243918108      -1.91504498719527
H         0.72666440270336      -0.37900793884018      -1.37613700748668
H         0.62747379050036       1.39213954037070      -1.18299201750741
H         3.84561806992715      -2.36038819559511       0.63963960683935
H         4.33556730920588      -0.77919813019923       1.39510294750879
H         5.11904543618718      -0.43401918911713      -0.81725612702102
H         3.76934664398933      -1.41891787387931      -1.52964729261775
H         1.35334141765236       1.42640322016725       1.90558317112957
H         3.09849738463138       1.59234983451946       1.57740122921969
H         1.91310105520038       2.51986603625006       0.58487621808269
H        -0.40089203490312      -0.58831300200666       0.96506267658818
H        -0.66065685057739       1.19503492361823       0.88971331861160
H        -1.65074620583421      -0.85222038219698      -1.19068228605421
H        -1.90460738629996       0.93462792622105      -1.25641938262143
H        -3.14390101219664       0.82623466321553       0.93129704679089
H        -2.89972700294075      -0.96316127025364       0.97196832920254
H        -4.41147748309861       0.60751504725849      -1.22445006402399
H        -4.16382795878779      -1.17944481922903      -1.19319956574245
H        -5.67151177703982       0.47139457906879       0.93856153337116
H        -6.41452590221519      -0.55791285833522      -0.34363860260553
H        -5.42963431477627      -1.32459447660104       0.95949195937925
P         0.07512787526692      -7.00660645155868      -2.79194692717583
F         0.79237110642627      -8.57089570006658      -2.90463417234845
F        -1.59258105785464      -7.13573595123668      -3.20638137079402
F         1.67478928492091      -6.92960072507953      -2.16273531106251
C        -0.74183994166735      -7.81332534609289      -1.23631346409388
C         0.31000875570993      -7.30385445183682      -4.69032104410274
C         0.25487560329838      -5.09857829046413      -2.65755598572463
C         0.20656753634241      -8.11451306766590      -0.05553299765094
C        -0.28661078785264      -6.24979232515643      -5.65798936071374
C         0.41694095002843      -4.48746102897645      -1.25397037702200
F        -1.31549157511707      -9.02497729741148      -1.60407411683993
F        -1.76941507431170      -7.01364677439447      -0.76155104153175
F        -0.26892605817168      -8.51924128322771      -5.04286185693696
F         1.66775704941980      -7.38461556050093      -4.96109064840177
F        -0.86536460145888      -4.51902984117064      -3.22590674033999
F         1.36349106468141      -4.70019202958055      -3.38630215541795
F        -0.51298292592603      -8.73846830523526       0.94830386455457
F         0.74564454446928      -6.95912284027644       0.46625129507842
F         1.23226586930489      -8.96151576507240      -0.43349754321233
F        -0.21869147239471      -6.74655641336233      -6.94806148502913
F        -1.61373435324477      -5.97991499142649      -5.38315669331156
F         0.43164489299131      -5.07200967337432      -5.63828029651206
F        -0.61778686047068      -4.84450487195242      -0.41744869948967
F         0.39853080354251      -3.10982895274431      -1.37337774248147
F         1.62835482228046      -4.84157413704491      -0.68901392958244
