29
C7H16BF4N optimized with ADF in AMS.
N         0.28792731788223       0.07365332888798       0.38458395377529
C        -0.41324388629974      -1.01271131492511      -0.39647618965084
C        -0.80800864259187       0.61206793706523       1.29627513136399
C        -1.79370581271718      -0.44376429950648      -0.70356775871264
C        -2.10778680362290       0.49259669397913       0.49158083099194
C         1.43352640671468      -0.46682812282054       1.22199604635052
C         0.75822624910839       1.16885692641376      -0.52946549731003
C         2.60646502314899      -0.96693853228137       0.40698936160341
H        -0.47808211039087      -1.88210953055402       0.27540615437230
H         0.18213603816767      -1.27806902480401      -1.27907919678152
H        -0.52579836747446       1.62992825932864       1.60015009024232
H        -0.80453729472763      -0.03019239856566       2.18744743181943
H        -2.52855067034075      -1.25431771509966      -0.81288515282900
H        -1.78281699041538       0.11308565680160      -1.65209668480480
H        -2.45458957737896       1.47646229637416       0.14539546874263
H        -2.89913999034861       0.07661409225916       1.13127353292036
H         1.72946703545901       0.35568455261794       1.88924218236994
H         0.98848763919461      -1.27297289694891       1.82481867738389
H         1.37516367867396       0.72759303920690      -1.32119103576737
H        -0.11963522618094       1.66161012984179      -0.96367044870380
H         1.33064648839164       1.88944920586666       0.07106867356969
H         3.32427495766841      -1.42469379171962       1.10396124612705
H         2.32355570601817      -1.73555861141925      -0.32852258991052
H         3.13124892585880      -0.14359745156870      -0.09661171497502
B         1.61539736191893       2.92665466206863       2.54191445819423
F         2.64446844193605       2.36672017131991       1.69789041614697
F         0.56346240472548       3.39686505267797       1.67459326156309
F         2.11514712325059       3.95199065658262       3.33529386678164
F         1.07998393497165       1.85656529762124       3.33551068902686
