27
C7H13BF4N2 optimized with DFTB in AMS.
N         1.05683868905686       0.70851478746537      -0.40773386851456
N        -1.09690063669359       0.71310922090373      -0.42383021778311
C        -0.02190301685200      -0.07155705476035      -0.37624922278589
C         2.43161483962428       0.23260214666262      -0.28649607883590
C        -2.47487085342605       0.24134059256265      -0.33076033731448
C         0.66181624867633       2.01767409315352      -0.39574151398249
C        -0.69705004821152       2.02100354766137      -0.40502574801618
C         2.77063272349870      -0.03900884924474       1.17556695023387
C        -2.83454027107441      -0.06376299207641       1.11980920182496
H        -0.02415663827434      -1.14680609602610      -0.34791173871700
H         2.52421214164526      -0.67832878020416      -0.88645061232803
H         3.08633242467472       1.00150184894454      -0.70502221208655
H        -3.12068415465954       1.02341517544979      -0.73842398846690
H        -2.56485810305798      -0.65429752234840      -0.95377874764755
H         1.36825445026063       2.82643833218895      -0.34949374431364
H        -1.40125430026109       2.83233344268374      -0.37249087993831
H         2.71503965003149       0.88376178631485       1.74951555410182
H         3.77856851355089      -0.44745927596711       1.23751442484642
H         2.06238974835902      -0.74968196686238       1.59834503781235
H        -2.13604635851436      -0.78757498730291       1.53630579051007
H        -3.84537562822153      -0.46765694927743       1.15872167098765
H        -2.78142520554676       0.84503163158877       1.71610270477213
B        -0.05310776764242       1.55731856313482       2.64106169031291
F        -1.19749172914984       2.20709642652939       2.13036155613904
F        -0.04731599387689       0.22202315850830       2.12730086345266
F        -0.04999923108004       1.53766011868317       4.00921621398416
F         1.08838739686421       2.21563242093442       2.13076455955254
