59
C17H21F18N2P optimized with ForceField in AMS.
N        -1.27033039799772       1.29877757585609      -0.23506248678817
N        -2.67657668524176      -0.39135868202846       0.09690615243219
C         1.11758384069062       1.92470402710555      -0.18727784561619
C         1.60101242198466       0.47726633733169      -0.35908894084582
C        -0.24922618430587       2.14651302538264      -0.84748200285089
C         3.00266790648106       0.28184717388205       0.22709720130558
C         3.45233549765584      -1.17678628184643       0.08253484655987
C        -1.80765480191789       0.17975837601682      -0.75890751615231
C        -1.81397694760329       1.43776792492067       0.99075337686881
C        -2.68801660243831       0.38922785751254       1.19636036033230
C        -3.39680822013364      -1.64643913698587      -0.09737760659517
C         4.84708091338608      -1.38696910617471       0.66269764113596
C        -4.86631463163345      -1.37517894904007      -0.39291889337840
H         1.85038078539334       2.61660923864347      -0.65666535279271
H         1.05183241424921       2.17419406912203       0.89431812556560
H         1.61625851123027       0.21980724979499      -1.44113609507550
H         0.89739768110920      -0.21096525889889       0.15778598614351
H        -0.54544638305108       3.21270415818918      -0.74281383068850
H        -0.17340834642173       1.92691945831274      -1.93539199109762
H         2.99414195651713       0.55972811690652       1.30427349279267
H         3.72002926897850       0.94510984713527      -0.30470414095342
H         3.46366945290428      -1.45997417186208      -0.99283232858189
H         2.73839613301769      -1.84409685363640       0.61364020781142
H        -1.55076294457925      -0.22462399430356      -1.73047688169227
H        -1.58016194791698       2.23089545826713       1.68933459016592
H        -3.26927537076130       0.19897010992997       2.08954340741353
H        -2.95479465568119      -2.21226231790962      -0.94610297792743
H        -3.30556073531211      -2.27398864254916       0.81343122666804
H         4.85569805324827      -1.13902569692907       1.74541963327877
H         5.58548539805575      -0.74793473319821       0.13318105122785
H         5.14439279191231      -2.44968172612900       0.53951769678542
H        -5.33488330170908      -0.82742075518122       0.45157427638237
H        -5.40087427975825      -2.33720257217522      -0.53834455595542
H        -4.95964729178613      -0.76898406793728      -1.31895543106505
P         0.63350534818466      -5.54907528746890       2.99460859252173
F        -0.62732768435479      -6.54248905322773       2.37297483412662
F         1.36236220965801      -4.59909433125256       1.75468292784336
F        -0.09386494905424      -6.18031215712265       4.42062819568114
C        -0.73882321285835      -4.22382692551148       2.64135871485779
C         1.50674808774795      -7.07474246359566       2.18310017086534
C         1.89165464060811      -5.00084451224405       4.35628329784029
C        -2.11290959118605      -4.40796386748277       3.34290411784975
C         3.04920025275303      -7.05235432586981       2.11780544902545
C         1.47507986015722      -3.82902556309134       5.26749134864701
F        -1.00157756537746      -4.19864867056353       1.27695447427017
F        -0.26570146973970      -2.97050963161464       2.97606327958654
F         1.07685055118348      -7.20869239640167       0.86661068417271
F         1.14420053124757      -8.22164479638232       2.87577302319777
F         3.06440415103461      -4.60196313756055       3.73916613757260
F         2.20365856904380      -6.08146376183664       5.17094856990108
F        -2.87165376705784      -3.26883070880092       3.14389885133324
F        -1.99373723924454      -4.59402357057411       4.70323508969397
F        -2.81260916898302      -5.47325360674668       2.80488836127024
F         3.47779849321921      -8.14336537410974       1.38210707014505
F         3.51247215410459      -5.91248400050901       1.48825123660726
F         3.61544514664731      -7.15750550068653       3.37219124220446
F         1.57898032812835      -2.62590661452820       4.59489869981963
F         2.33661277954039      -3.77437052441391       6.34935979646857
F         0.19662833613251      -3.97897612702871       5.75592100358519
