23
C7H12N2O2 optimized with DFTB in AMS.
N         1.24514454460649       0.09857751269131      -0.42541950837438
N        -0.79115372232263       0.19100079099338       0.26723977588960
C         0.17991832518767      -0.64290359546487      -0.11192494888835
C         0.97760553253701       1.41354061361722      -0.15528910064035
C        -0.30916659715310       1.47195228642586       0.28095345808730
C         2.59743539388517      -0.39587015303241      -0.60266312338983
C        -2.00636712400329      -0.18664173800599       0.96403111297984
H         0.10255230779591      -1.71296044310956      -0.19456879539667
H         1.72014648104081       2.18029727919793      -0.27158658977988
H        -0.90395027574351       2.29849047798613       0.61995029972275
H         2.57474165754976      -1.46652601698953      -0.79632103524191
H         3.07284209619718       0.12787357781898      -1.43131102566794
H         3.12942371150181      -0.18332697312863       0.32917593474128
H        -1.84627480304562       0.05303230357273       2.01952190636771
H        -2.84599184460521       0.38780809000110       0.57424952154153
H        -2.18667757206824      -1.25238849191340       0.83570235109367
C         1.69720375278748       0.51550459745459       4.25348252045495
C         1.24989213199486       0.98137246472977       2.83911440869651
O         2.14917386487840       1.07862390664076       1.97805909725024
O         0.02553827403458       1.18747237786574       2.69623311172805
H         1.15547812619541       1.07603138294426       5.01304844706901
H         1.45397213546939      -0.54203067325753       4.35903503917090
H         2.76991148057967       0.65237791356216       4.37653180898595
