47
C13H13F18N2P optimized with ADF in AMS.
N         1.19905480673012      -1.24945065901563       0.66590142477231
N        -0.04994589938555      -0.32663555452101       2.18573734856585
C         2.02908520724088      -1.43658868253870      -0.53601571038855
C         3.49425310869396      -1.08272526495685      -0.29734992554618
C         0.52950660747259      -0.13308039225128       0.99130174676617
C         1.05569114602914      -2.16394015797221       1.68579907623239
C         0.26988644613426      -1.58676826888486       2.63919561626958
C         3.72644678511662       0.39976120740486      -0.03505257926201
C        -0.86230764177239       0.64523227335615       2.91163038682260
H         1.59015793825435      -0.81227247017151      -1.32974299707659
H         1.91415397260353      -2.48944474870782      -0.83219679631462
H         3.87961092686794      -1.68649367978307       0.53902650629738
H         4.04425866576007      -1.40261616986989      -1.19942396999341
H         0.47251246106356       0.76834007071321       0.39598032341104
H         1.56710180385341      -3.11824319140088       1.68513073610588
H        -0.02749525952199      -1.94429959897339       3.61778134102348
H         3.20192691839096       0.73624418887412       0.87024869508622
H         3.40060477991539       1.01354003325627      -0.89121154591331
H         4.79570965231266       0.59253783955017       0.13380300187112
H        -0.95066480631176       1.55536981096944       2.30911799278957
H        -1.85816254996973       0.21985560420871       3.08804812208850
H        -0.37368695669296       0.87417252775782       3.86545043087023
P         3.30268760656496      -1.94119369309771       5.37953676787043
F         3.02726201525942      -3.15909434784921       6.46794037334790
F         2.29934221118199      -2.65054357074028       4.22694114068547
F         4.28919687780399      -1.17464030735514       6.46593126587901
C         1.66600125999277      -1.16144135705787       6.16369495900368
C         4.79519234024886      -3.11586391001546       4.64794901126468
C         3.78545251462063      -0.43158002731638       4.09341908313776
C         1.69339675551716      -0.62009013289901       7.62578046991661
C         5.15036813898137      -3.31407856591443       3.12670339367511
C         3.37935812585281       1.08299664338656       4.14661847530183
F         0.66310172055435      -2.11406179533221       6.15698158351432
F         1.16275692686427      -0.11262010350673       5.39316642406436
F         4.47366674169769      -4.41030730586446       5.00862589031592
F         5.98975397839772      -2.81207109111804       5.25710695229876
F         3.45247566730617      -0.80268547418739       2.79144408638290
F         5.16039415140487      -0.37223374574083       4.15399038272501
F         0.42247789150742      -0.25406332601291       7.98402170964957
F         2.47452929273794       0.47606734169292       7.74280566231339
F         2.11370522052549      -1.55423033342003       8.49906488480484
F         6.00620337558411      -4.36741955093291       3.01606428594946
F         4.04538457138519      -3.62063622563226       2.38179926420120
F         5.75947207075086      -2.25875044914195       2.53982154622410
F         2.16152364377205       1.31726390740500       3.56516722174841
F         4.27110582559362       1.81555792850670       3.41804413261371
F         3.36726801980922       1.57007518320041       5.39804882583390
