44
C12H26BF4N optimized with ADF in AMS.
N        -0.52290622570084       0.71971165508119      -0.29529304399757
C        -1.17787972623090      -0.43619490122728      -1.01943943548609
C        -1.44820314345038       1.18695445617811       0.82700051771992
C         0.81726960976195       0.32907898131833       0.29891547362034
C        -0.37195200313384       1.84731937275208      -1.30802494150644
C        -1.53231598276857      -1.58794710798240      -0.09650522340030
C        -1.87017633977274       0.06393839734865       1.75822629406750
C        -2.47630370377522      -1.11973204202049       1.01063588738554
C         1.81894443283317      -0.27944097128553      -0.66462573468037
C         0.31127867516958       3.12705302609388      -0.82816741585486
C         3.14881698691406      -0.47717594140795       0.07451656063145
C         1.82355293101742       3.19984401505913      -1.04271289092370
C         4.25324777319065      -0.99719553964650      -0.83858112021801
H        -0.49737953994684      -0.74092387881046      -1.82649760144960
H        -2.09220661261585      -0.02296582946070      -1.47683389790128
H        -2.32126332812775       1.62428460808746       0.31433289441461
H        -0.91131986867090       1.96511360553628       1.39035074433554
H         0.61182939619527      -0.35430962761123       1.13012969562669
H         1.22271907621874       1.23600974330311       0.76376776320427
H        -1.40419034113150       2.06103029742804      -1.62552981242804
H         0.15811815351956       1.41470911457614      -2.17086333066871
H        -0.61836264395380      -2.02943090632183       0.33458267756535
H        -2.00252377453597      -2.37272940662524      -0.71258766111431
H        -2.60010785589813       0.50229974067142       2.45885721671768
H        -1.01445772873374      -0.23809676623510       2.38170465439978
H        -3.43931785788830      -0.82136671573424       0.55577630039824
H        -2.69120494973756      -1.94588884277658       1.70677697621826
H         1.99104443024948       0.38140083069199      -1.53158304505310
H         1.47357967271889      -1.25385477503004      -1.05547855786297
H        -0.16629521803729       3.93964686106480      -1.40296509494025
H         0.08351814150261       3.32876403065265       0.23071689535931
H         2.99306976451316      -1.17541042470035       0.91573833363079
H         3.44844227703889       0.47857388503252       0.53539138783127
H         2.16523150630709       4.23133735548137      -0.87196932873215
H         2.37545612944285       2.57187365487597      -0.33192872190061
H         2.09840408123865       2.91871889758785      -2.07266929092953
H         4.44948455384253      -0.29257041854078      -1.66287494392794
H         3.98806626280540      -1.97049103377015      -1.28215797573637
H         5.19177623381167      -1.12605890182678      -0.27848488066760
B         1.35385030965067       2.31216141073582       3.09815440505237
F         0.82980837588277       0.99590313147499       3.30484261885302
F         0.30772236643860       3.11403956830069       2.49700087846382
F         2.42520347090553       2.22953824205920       2.14378486630624
F         1.78475906654094       2.88226639182197       4.29245642657782
