43
C11H24F6NP optimized with DFTB in AMS.
N        -0.41570261441833       0.27716660555808      -0.43759356794409
C        -1.19283584930788       1.33339916344863       0.30218615989746
C        -1.29521283786557      -0.31008360420665      -1.50552674692961
C         0.06217696695815      -0.75566687778225       0.53963303612336
C         0.73805971352259       0.92847277748003      -1.16232762298873
C        -2.51793649088616       0.83038589314276       0.85855936696122
C        -2.61056800187908      -0.85884835716809      -0.97076314316323
C        -3.38543723992584       0.24359991804405      -0.25222809955633
C         0.96110224798645      -1.84482441013634      -0.04437589793121
C         1.75453726045483       1.64029347926402      -0.27524100660852
C         1.28831454104211      -2.86540638797784       1.04599105770159
C         2.81545484527054       2.28043024934877      -1.17155812737357
H        -0.56049096745277       1.70433200980686       1.10991043639744
H        -1.37580223855445       2.14120486937696      -0.40624121344249
H        -1.50295346080855       0.50062170414959      -2.20717993290561
H        -0.72612872994927      -1.08529632365472      -2.02111221642105
H         0.59648678593740      -0.22175394968591       1.32924217000030
H        -0.82058816125962      -1.21852192177371       0.98462211064471
H         1.22594148144321       0.14855727336449      -1.75157833997775
H         0.29908334643239       1.65072975884256      -1.85026186357457
H        -2.36079299420041       0.08986368377596       1.64892534504256
H        -3.02228375214931       1.69075911281408       1.30589363512441
H        -3.18392144224402      -1.21918665165035      -1.82885709698575
H        -2.44288613599803      -1.70867294731018      -0.30226348158894
H        -4.30864514570183      -0.16110366009200       0.16857420040544
H        -3.64561693971001       1.03051816322508      -0.96633386079063
H         0.46191998988823      -2.35387696334056      -0.87246268591150
H         1.89246337781050      -1.41464119311414      -0.41932254247737
H         1.26455476428718       2.42780201020099       0.30095431137924
H         2.23048909801563       0.94238543168093       0.42045367983758
H         1.93668674062510      -3.64024648939633       0.63889393806977
H         0.37732203266473      -3.33386776741955       1.41977222044616
H         1.80116818714701      -2.38418025552469       1.87920734364944
H         3.54233813225499       2.80975367570674      -0.55665256958941
H         2.34833558980759       2.99022903638685      -1.85345245813585
H         3.33622082817527       1.52062646100483      -1.75569203546515
P        -0.90282619581621       4.03625959975279      -2.60784782007236
F        -0.10435737188006       5.44480153772950      -2.71259690183883
F         0.38687288994767       3.22339147279308      -3.27200736726711
F        -0.22285101157168       3.75841748762942      -1.09149639687619
F        -1.68915212033113       2.53458784672017      -2.45848748488080
F        -2.18209379899633       4.74309739517068      -1.88184156439939
F        -1.56657359496504       4.22286969961538      -4.07837868368464
