24
C6H8F2N2O4S2 optimized with ForceField in AMS.
N        -0.68820129696095      -0.00510929248632       0.05596238673866
C        -0.00960897010391       1.16129034913136       0.28141280937560
C        -0.01064526458283      -1.17470122525467      -0.14825296073277
C        -2.15221603715530      -0.01898735712184       0.03238247981984
C         1.38709691753949       1.17443249591270       0.30333588074205
C         1.38612426393587      -1.19598773327126      -0.13701154953371
C         2.08663148583694      -0.01212378034020       0.08926528190687
H        -0.54295169865480       2.08983511357922       0.44588888405751
H        -0.54997802555895      -2.09863896924161      -0.32258152972594
H        -2.53361310016615      -0.67504331761378       0.84376951514006
H        -2.57552694995575       0.99845490595425       0.17766406460904
H        -2.50809700267483      -0.40566317391241      -0.94644654084090
H         1.92110902049650       2.09853155590457       0.48166067799417
H         1.91919275933755      -2.12360214041296      -0.30079359017121
H         3.16869460014063      -0.01433893093422       0.10033831728179
N         2.29046469569954       1.77538768407665      -3.00918673207476
S         0.99068388557519       2.76131596889442      -3.13470278112466
S         3.79863044796191       2.38055050586059      -2.81807383617391
F         1.06838205088459       3.60431526755892      -4.57955724368988
F         3.92801298197352       3.09262050781581      -1.30830495904407
O        -0.26786302020603       1.94208962839926      -3.09923042702518
O         0.98537924257052       3.74554516892613      -1.99926657982134
O         4.06751249865963       3.42046658879996      -3.86905823393302
O         4.80474828080760       1.27150166407541      -2.93608111217425
