34
C10H18F3NO2 optimized with ForceField in AMS.
N        -0.36357217537337       0.38476690780609       0.07484092774385
C        -1.41464367118647       0.66585317373907      -0.94287648728438
C        -0.84446135434058      -0.80647575778647       0.83473933840660
C        -2.67767708909656      -0.05634413299694      -0.52054899411964
C        -2.17552435447219      -1.25075982024602       0.24559436378689
C         0.93067876195771       0.10750712274314      -0.62209990721603
C        -0.23875911159012       1.56026205774272       0.97559492589279
C         2.14869171845132      -0.05268627043769       0.31675220418397
C         3.35320530300838      -0.60067998990520      -0.44483916656286
H        -1.13338198654193       0.28210163476713      -1.95047294690182
H        -1.61872184094763       1.75400853869148      -1.07242800085650
H        -0.99844087445344      -0.58194547294435       1.91588577148207
H        -0.13697490760026      -1.66391726326987       0.79251538938036
H        -3.28894251385533      -0.36288601024204      -1.39775500555328
H        -3.28202913898538       0.59585146750197       0.14717686182508
H        -2.89560536042756      -1.55703016366427       1.03547153395527
H        -2.01227246590159      -2.10085037547926      -0.45377086381798
H         1.16012725511882       0.93287087224360      -1.33528259527061
H         0.83022512474447      -0.82032008913031      -1.23177868759421
H         0.19371763894588       2.43158524552903       0.43445887195896
H        -1.23267083433324       1.86097006488640       1.37726208808002
H         0.40882231387476       1.33479367336612       1.85089814862572
H         2.43114467143246       0.93541432089104       0.73916411572410
H         1.92031187605599      -0.73927936161273       1.15811323359835
H         4.22540402012367      -0.67432364281974       0.23803907066868
H         3.12955390743910      -1.61317592918852      -0.84412106150394
H         3.61695924817734       0.07471926823337      -1.28661809030476
C        -0.21489334066108      -3.05521776403243      -5.37076466138890
O         0.60488482604739      -2.98709312172272      -6.27292903006138
O        -1.38704941584508      -3.26849580319069      -5.63539591312163
C         0.20807291223481      -2.87946934892372      -3.94360799453274
F        -0.50932242806952      -1.84339641416129      -3.37695601029108
F         1.55918875200348      -2.58787601547995      -3.86845998625312
F        -0.04273747583425      -4.04392830580696      -3.24176683087786
