22
C4H12BF4N optimized with DFTB in AMS.
N         0.45933199043160      -0.00882481203829      -0.16944878233520
C        -0.40660512739009      -1.18306287217375      -0.46883426702443
C         0.26499472084455       0.40123517162896       1.24368738886412
C         0.09324052870202       1.12084740360226      -1.06803370043944
C         1.88624120181569      -0.37607009959947      -0.38785252621589
H        -0.13235967688362      -2.00025818299109       0.19550435806315
H        -1.44608097542663      -0.90225381049823      -0.31058423968202
H        -0.24922143944704      -1.47317984273695      -1.50710526746145
H         0.90040513863696       1.25948192719873       1.45549915923992
H        -0.77954225946714       0.66745106989094       1.39620956150798
H         0.53437816315962      -0.42836765813485       1.89510323587970
H         0.72944602756447       1.97325602013606      -0.83777715593539
H         0.24471877788937       0.80617011460304      -2.09995897804418
H        -0.95173700976424       1.37648241191710      -0.90331296078635
H         2.50868214013904       0.49117411327565      -0.17603019786769
H         2.14347373261710      -1.19623230914418       0.27961588962954
H         2.00786068903284      -0.68193212778218      -1.42672256077036
B         0.94261393182389      -1.02433850345187      -3.67581387917655
F         1.12129437618275      -1.39790228225660      -4.96967671217657
F         1.74126186945547       0.09650435025468      -3.32359480571770
F         1.27799783724382      -2.06160621016889      -2.76449193199846
F        -0.40389183996042      -0.66473712413106      -3.39977602655275
