48
C14H25F3N2O3S optimized with DFTB in AMS.
N         1.43101002940992       1.32683321467916      -0.87854175888032
N        -0.67661104213410       1.72697938642222      -1.05238547426288
C         2.77192360826269       0.81785751109277      -1.16874724011727
C        -2.05371567869373       1.69712462781290      -1.54105791129794
C         3.24900091095204      -0.12619882664951      -0.06264770469417
C        -2.64218812680117       0.28604472786543      -1.43299237246676
C         2.30985691079230      -1.32318637039428       0.10745276040484
C        -2.48735337564832      -0.31603793781557      -0.03483038026888
C         0.37757378581105       1.21153893936046      -1.68232999712566
C         1.04199649460756       1.92190887694350       0.29163210137662
C        -0.28988963958972       2.16822773116091       0.18357038312259
C         2.76831800928276      -2.25219486811327       1.23334549057785
C        -3.01204586634965      -1.75467156212172      -0.00224451397953
C         1.77756743053908      -3.40148545512879       1.41491962468030
C        -2.83554941673873      -2.37267682917676       1.38319306417696
H         3.44711640009124       1.67411511911286      -1.26239347718211
H         2.71555490850363       0.29005097852336      -2.12403594416421
H        -2.04887011715113       2.02373161309960      -2.58435312618172
H        -2.62564452130743       2.41267116051229      -0.94392025453696
H         3.33856105520801       0.42406408423941       0.88015450772746
H         4.24838592818631      -0.47295185585770      -0.34193019489490
H        -3.70091460299947       0.35369858250079      -1.69964304978712
H        -2.14852365278687      -0.35797396027475      -2.16288112366902
H         2.26811365925918      -1.88083813252140      -0.83104074500106
H         1.29902215943277      -0.96442619529654       0.32331710773440
H        -3.02152508671728       0.29974396128952       0.69890162123397
H        -1.42745094405289      -0.32516944303763       0.23745790903596
H         0.37432084659369       0.78708735595938      -2.67259757660946
H         1.72902226843350       2.12180881730596       1.09457550171569
H        -0.98192429763883       2.61853883132954       0.87323063088291
H         2.85053697329304      -1.68797636272315       2.16980341403841
H         3.75927426841916      -2.65476148377610       0.99723741520145
H        -4.07136809376241      -1.76802023778418      -0.27978749385718
H        -2.45846433129719      -2.34964033089866      -0.73471757226902
H         1.67323686748178      -3.96341692222198       0.48625431246771
H         0.79642358704809      -3.01558594743679       1.69571378548281
H         2.12356517065569      -4.07777747423415       2.19698570714296
H        -3.39094522430133      -1.80682976583766       2.13345355999265
H        -1.78109782107248      -2.37974034777979       1.66386383271262
H        -3.20013410096385      -3.39999613615550       1.38198481348315
S         0.23857656040734      -1.61569198183020      -2.97461150057342
O        -0.18477503931914      -1.69686546389690      -1.58251823059798
O         1.65339860790456      -1.31788959069237      -3.14142528101450
O        -0.63942618455328      -0.80135658664296      -3.80168419878396
C         0.03787801205536      -3.33894747603421      -3.60843109293591
F        -1.21499468939036      -3.74579887781618      -3.43907231305674
F         0.83911980993032      -4.16620998209002      -2.94647969652497
F         0.33284358120828      -3.41099776427132      -4.89884806425771
