51
C13H24F6N2O4S2 optimized with ForceField in AMS.
N        -0.83318023004351      -0.20544446084307       0.02186733958481
C        -1.17168147203723      -1.24238669216592      -1.00162268504680
C        -1.96499345447046      -0.24367923358499       0.99832513443579
C         0.43924672384773      -0.56824262657132       0.72711145332193
C        -2.59683200746359      -1.70283078111997      -0.75871432963770
C        -2.79414438166256      -1.48053621144318       0.71342616471539
C        -0.76276236462526       1.13869525808118      -0.63808614001547
C         1.70528537534152      -0.54053160585523      -0.16323231600155
C        -0.40846946956600       2.30602012533289       0.31365363844895
C         2.91693901404461      -1.07800599552600       0.60917449787214
C        -0.49334072911667       3.64563152181848      -0.41383684838843
C         4.18550043980090      -1.03682875708643      -0.23725275980134
H        -1.06817804296618      -0.87737654316499      -2.04928926720341
H        -0.52253217285438      -2.14435081980907      -0.91942858113986
H        -1.63052596235776      -0.24989612820571       2.06116755740164
H        -2.64492159600086       0.63228341069210       0.88873986478250
H         0.34025013668272      -1.58905500126491       1.16523477413426
H         0.61013545338609       0.10777965891433       1.59404331730821
H        -3.30402643770731      -1.06535292770092      -1.33467157863113
H        -2.74416583257372      -2.76963676873021      -1.03513741168022
H        -2.39112356675331      -2.34646367551540       1.28423843819251
H        -3.86666498261499      -1.33130836389852       0.96574821258297
H        -0.02221797684691       1.12630125630438      -1.46829946055382
H        -1.74236816628734       1.36540825232833      -1.12043326255628
H         1.55690677549161      -1.15660940779681      -1.07490177431624
H         1.92776351480570       0.50043450249868      -0.47745127632830
H        -1.09926950100970       2.33386526263395       1.18175158415526
H         0.62662922710054       2.19550513013230       0.69675408917564
H         3.07723819695930      -0.46906880846408       1.52572297396420
H         2.72694216685906      -2.12846455333083       0.91398124537502
H         0.21904680034829       3.66642988448560      -1.26603362640552
H        -1.52345812302773       3.81677319631869      -0.79266945669237
H        -0.23282341356867       4.46727581779722       0.28595157259893
H         5.03875189357549      -1.42681691812963       0.35703044544017
H         4.06632328756216      -1.66840246219195      -1.14314512267536
H         4.41280429740362       0.00696476570713      -0.54178389278278
N         4.75560679746471      -5.21132270369104       0.47468588774421
S         5.12009928044868      -6.39896725435517      -0.59475663395715
S         4.03402111897328      -5.50736732981170       1.91671683677652
C         3.77352499037276      -6.58064175832686      -1.74609881520737
C         5.27741777963777      -5.56071122938833       3.18987898303527
O         6.35843887277548      -6.01564905718590      -1.35392836447312
O         5.35111810923801      -7.70342245522416       0.11659782679503
O         3.29026837965048      -6.81373046979842       1.88558546164059
O         3.07560470599858      -4.39385461335494       2.22738752787092
F         4.07737529989030      -7.57176043275167      -2.66003820521375
F         3.57429263786709      -5.38688654495984      -2.41344037552663
F         2.62008772581750      -6.92266115371191      -1.06612360564337
F         4.67699185336908      -5.80227037108408       4.41091948744788
F         5.94129205027526      -4.34934656090246       3.23707697833243
F         6.18251219686580      -6.56870100999964       2.91639911984483
