19
C7H10ClN optimized with ADF in AMS.
N         0.17342075356395      -0.03050270614944      -0.34470886263622
C         1.63982305725252      -0.09130370427981      -0.57232185211084
C        -0.38381898157333       1.18250261208060      -0.10224061044115
C        -0.56452063023871      -1.16605645540603      -0.35028495842851
C         2.38688266561222      -0.06642000680026       0.75053621428039
C        -1.75116328109518       1.25958965277601       0.13085050370527
C        -1.91973336504945      -1.12506572266170      -0.09717898679361
C        -2.52902196614020       0.10949014710159       0.15239134735754
H         1.83142744532987      -1.00401194750529      -1.15640018712071
H         1.89836110127293       0.82728636020497      -1.14465851490202
H         0.32947034653542       2.05668542523742      -0.17293922679056
H        -0.02543053682256      -2.09018060566710      -0.55613111829284
H         2.24770541799962       0.91750647602048       1.22470250617500
H         3.46168491662191      -0.18531821264706       0.55009585921237
H         2.05594259029238      -0.87301209894115       1.42401949487204
H        -2.18845324274018       2.24468781013258       0.30104069798238
H        -2.49110867201758      -2.05262062221922      -0.09564344922453
H        -3.59915735344893       0.16233833800792       0.36169679048316
Cl        1.90860230324529       3.16189730071547      -0.71962070402716
