46
C12H26F6NP optimized with DFTB in AMS.
N        -1.85265683904735       0.46817503419558      -0.26376515585016
C        -2.05022500274827      -0.53657144144569      -1.37924290125034
C        -2.99240529550469       0.24172973317745       0.68766673449661
C        -0.55660385567645       0.19431764335780       0.45424898436517
C        -3.16967554137704      -1.47936305745271      -0.94394673666106
C        -3.32906603224596      -1.23461951560811       0.55441962622902
C        -1.89942734377133       1.86341793484080      -0.82013728815919
C         0.69547910118121       0.49525539975543      -0.36771202371422
C        -1.78755202597911       2.94988258585019       0.23632729287980
C         1.93344923811140      -0.05031034433423       0.35088376138964
C         3.19293076827267       0.23682452674935      -0.47302753686869
C         4.44578414764924      -0.31018812486977       0.21689850318978
C         5.69958605402167      -0.02866579557330      -0.60936964507549
H        -1.11382473447105      -1.06829735818265      -1.53769054079851
H        -2.29669973969045      -0.00345078148416      -2.29619854988615
H        -3.83405253784100       0.85431274995276       0.35606139097087
H        -2.70151221058492       0.53843873706659       1.69495868064788
H        -0.57868074779064      -0.86163927318626       0.73727548927663
H        -0.55675843901948       0.79229792569818       1.36937244083404
H        -2.91655391770511      -2.51702494937729      -1.16407332207822
H        -4.09729458544846      -1.23116052131858      -1.46551328366709
H        -4.34165770643875      -1.43871659067924       0.90383481478084
H        -2.62941638896536      -1.84635160431859       1.12942741712263
H        -1.08827328297404       1.95147914844011      -1.54153794860904
H        -2.84586551873273       1.95378553693003      -1.35768469126477
H         0.62657593263960       0.03951690154472      -1.35614602302410
H         0.80713863542140       1.57258790181066      -0.50631620941165
H        -1.86371120235503       3.90968044053241      -0.27411232522377
H        -2.58900989788283       2.88767802672553       0.97176744332910
H        -0.82846386135408       2.91625697345225       0.75046088670167
H         1.82689641441083      -1.13122887780452       0.49609266515102
H         2.02240120084025       0.41364146518653       1.33985620463310
H         3.29412669470987       1.31775698294578      -0.61433058860952
H         3.08862697287845      -0.22016426227747      -1.46200832961687
H         4.54910922209911       0.15066228349735       1.20568614890574
H         4.34000562223576      -1.39103903145134       0.36175049762281
H         5.83303517810282       1.04516944284718      -0.74671796277050
H         6.57913250315263      -0.42661660486855      -0.10259382067289
H         5.62195085535288      -0.49669986191275      -1.59140341192337
P        -0.18062691182983       1.24196126944656      -4.25642511220742
F        -1.73829572994996       1.47484231225858      -3.64950046123935
F        -0.12338844290662      -0.19370446839695      -3.38043320022737
F        -0.80292569757886       0.43637919655619      -5.52562501607064
F         1.34290055967264       0.99137950087538      -4.76637453529788
F        -0.27563369282306       2.66541371931740      -5.03629853049905
F         0.40338304524011       2.02633349303139      -2.89192975434903
