56
C16H32F3NO3S optimized with DFTB in AMS.
N        -0.67786196664483       0.42317032209432      -0.44276568040511
C        -1.27844864481762       1.59286731630703       0.27689799022773
C        -1.45996218766635       0.16632364318561      -1.70010344059906
C         0.72232798469672       0.78513207145764      -0.87552495101571
C        -0.66018273100953      -0.78163641774107       0.46003078975882
C        -2.77198087657391       1.44292441113545       0.55001914431077
C        -2.93975875163492      -0.05966371240133      -1.43643280928060
C        -3.54742242471026       1.15263140440386      -0.73392278799657
C         1.67816975155116       1.23070232369814       0.22554030492404
C        -0.23776144671890      -2.08521434484610      -0.21472290589373
C         3.08348741380992       1.31987295292123      -0.38724786754849
C         0.01992246138214      -3.15827932246222       0.84844196009784
C         4.12506619860914       1.70774523622138       0.66528874699419
C         0.43530598520437      -4.47397430756073       0.18158060562803
C         5.52223046912680       1.78455803648912       0.05241728741255
C         0.75636969328220      -5.54710991197346       1.21939871537462
H        -1.10260410751037       2.47005040766618      -0.35200848322331
H        -0.73740860227745       1.71703487291388       1.21711096636617
H        -1.01281979563099      -0.69039478487673      -2.20150926828411
H        -1.32085841255000       1.03867164215265      -2.34240496785518
H         0.62577582002696       1.57250185918386      -1.62572621479580
H         1.13469064502457      -0.09529848304167      -1.36557704571568
H        -1.66269830729409      -0.89735923836775       0.87618891909162
H         0.01725704454048      -0.54558517056445       1.28372597205746
H        -3.11695815136072       2.38227774697277       0.99069840162478
H        -2.95136495658475       0.65103806756745       1.28240395780336
H        -3.09703291931370      -0.96208268768892      -0.83965095372018
H        -3.42511031768773      -0.21138054373031      -2.40365905734133
H        -3.50039007152805       2.02257413981085      -1.39658864916290
H        -4.59609961214674       0.96230339286856      -0.49420642030300
H         1.39043302012691       2.20535989346965       0.63168644470499
H         1.69629570872569       0.51089842046735       1.04861016982043
H        -1.02554689674913      -2.43129263429921      -0.88781583763105
H         0.67194732399332      -1.95327902398972      -0.80332564318724
H         3.07995618061106       2.06032852867081      -1.19327581147319
H         3.34339005270431       0.35121878540431      -0.82583133044474
H         0.81494878796492      -2.82031718444947       1.52220258974707
H        -0.88447323859419      -3.31426550150339       1.44749483091406
H         4.12090256367249       0.96682292564171       1.47230122562148
H         3.86212254530862       2.67821641124644       1.10107133128007
H         1.31343549046301      -4.29761492141894      -0.44709864082203
H        -0.37528062476028      -4.82189933646551      -0.46660714549299
H         6.25072612856015       2.05907390104908       0.81562037630431
H         5.80599035951157       0.82006166520345      -0.36979129472152
H         5.55021097413786       2.53229382641601      -0.74107472828131
H         1.04638697034704      -6.47134115889137       0.71972913644433
H         1.57861835828996      -5.22598287055907       1.86033517509234
H        -0.11414451551469      -5.74868111053982       1.84571698027085
S         1.55954354672492      -1.12123996387541      -3.75839052554338
O         0.60755364572691      -0.01593410967474      -3.69656932019538
O         2.08323418988981      -1.49540417917796      -2.44733099901505
O         2.52816479987247      -1.05124502009692      -4.81595814192698
C         0.46251643594698      -2.56091532973812      -4.17338299554293
F        -0.08229757668029      -2.45152808459004      -5.37651070891468
F        -0.54573818927445      -2.60294680110609      -3.27700443497510
F         1.10299709220147      -3.71987192648826      -4.10203685606357
