30
C8H13F3N2O3S optimized with DFTB in AMS.
N         1.24024184302887      -0.94148945265311       0.30855864156134
N         0.03294313855087       0.54682731402343      -0.66701434268078
C         2.30752840852245      -1.56195884745658       1.08787263415836
C         1.92815313833922      -1.66681163705504       2.56597614909387
C         1.06530959273278       0.36796258878187       0.15388233762233
C         0.30499218527143      -1.61178768613002      -0.43108015162323
C        -0.45367091278768      -0.67147902580435      -1.05415711891517
C         1.79990149520587      -0.29918023015999       3.23278112290617
C        -0.36884736581440       1.83719149834881      -1.20230514838824
H         3.20354811715343      -0.94844190007045       0.95858051035808
H         2.48490052742528      -2.55382407701793       0.66652137004842
H         0.99067785122396      -2.22311053568969       2.66627226983615
H         2.71654088501199      -2.23977757763703       3.06185714480212
H         1.67555614770254       1.14173709689544       0.58756014072947
H         0.26370976912034      -2.68630754694346      -0.46473072214308
H        -1.28488026972939      -0.76886053027513      -1.73022636992323
H         0.94772821856020       0.24895853828828       2.82842254794240
H         2.70317724296125       0.28906842422087       3.07040855568217
H         1.65002293876141      -0.42400690934500       4.30478856287787
H         0.38176720002110       2.14774825012216      -1.93194005281893
H        -1.34422227477621       1.74142562354911      -1.67466726274694
H        -0.40960564472093       2.56433180398709      -0.39288555657564
S         3.86664442231607       1.44391665882053      -1.06118935293116
O         2.54096856830438       1.79138936263265      -1.56518684522608
O         3.84296630224213       0.98955916589930       0.32756768580892
O         4.92115665003741       2.35705724381089      -1.39890916068662
C         4.24511883670150      -0.12351356492207      -1.98258065161443
F         4.23279617100192       0.04771504582611      -3.29692277876132
F         3.29972372676322      -1.03753632386141      -1.68463132301986
F         5.41601313766902      -0.63871468398524      -1.63277984037294
