31
C7H9F6N3O4S2 optimized with DFTB in AMS.
N         2.30386901414754      -0.08886150082497       0.27605674482944
N         1.18199794459144       1.64186367009055      -0.33245777746877
C         1.87456379358345       0.59754066724131      -0.77830320227735
C         1.89829576537632       0.54184834845731       1.42027696388225
C         1.19423807098782       1.63829115744793       1.03584711256756
C         3.22034380454207      -1.21527191879801       0.21151646861201
C         0.70988961219422       2.73930976109801      -1.15960486623998
H         2.06063490945425       0.35242871507868      -1.80860513703848
H         2.15665855891260       0.17524508580499       2.39789101020686
H         0.71790481915710       2.41104694600975       1.61273145011085
H         3.23804962935916      -1.59535796677714      -0.80748134516496
H         4.21685192548800      -0.86175920116515       0.47894230508596
H         2.89706645534337      -1.99029197671593       0.90506480186185
H        -0.22491414575865       3.12277712831996      -0.75411461095640
H         1.47305392880831       3.52036589478959      -1.14951059394438
H         0.56435673301065       2.38146676362172      -2.17688053117409
N         5.71889270493798       2.91842466359830      -1.41541330804895
S         4.94430640856524       3.25526442069541      -0.05311467338425
S         5.13223083072228       1.73140509993500      -2.30360282466388
C         5.59456393773949       2.02015373027136       1.21605192042199
C         3.78507451051139       2.51235479677605      -3.37416016703637
O         5.41199864773676       4.52670932322183       0.41824901920589
O         3.50872813681480       3.01912236635455      -0.06617773352973
O         4.42340015918291       0.68327841903000      -1.57873287901449
O         6.13271404204982       1.33043474962787      -3.24932587125208
F         6.01589469116508       2.65361565037416       2.29564971357490
F         6.58704949788882       1.30176053484234       0.72175437017449
F         4.61883075040780       1.18192385521377       1.58312927341871
F         2.73057374548466       1.68571186604573      -3.44760922370867
F         4.22259859259135       2.73250758197386      -4.59720617150755
F         3.35325318080394       3.65622535096114      -2.86067787034232
