58
C16H22F18NP optimized with DFTB in AMS.
N         0.10100997815470       0.05543557807833       0.11590454026228
C        -0.60891989846159      -0.39482724484900      -1.13756752217188
C        -0.96675585042973       0.64642849896829       1.01026306648069
C        -1.93322241588464       0.35069561811559      -1.14571358484619
C        -2.30077341319719       0.35717886380985       0.33448371447262
C         1.11030857467379       1.11605805967784      -0.25603972069938
C         0.74427205801752      -1.12298507500704       0.80477375974233
C         1.79512450998839       1.81300737416696       0.91794930479906
C         1.62910723068045      -1.98591192750881      -0.09447454951893
C         2.69875332763080       2.91869489906002       0.37065187853305
C         2.27638297848002      -3.09431665434315       0.73467368129731
H         0.02125480885577      -0.19732823822508      -2.00368088935981
H        -0.79320999973040      -1.46747573790019      -1.06023609143490
H        -0.88331210926618       0.21890131270813       2.00881217972843
H        -0.80764881850620       1.72317608608035       1.07138330324828
H        -1.80940383859719       1.37035759330412      -1.51854794905219
H        -2.67104540399527      -0.16573630348999      -1.75983583909663
H        -2.68721375124629      -0.61968340490072       0.63600285189960
H        -3.03787870563486       1.12133729098654       0.58204536153045
H         1.86008430741674       0.63490212930599      -0.88313590365116
H         0.56828750248051       1.84974213968295      -0.85960465025225
H         1.32620099614368      -0.72577850957865       1.63736076900060
H        -0.07379812852565      -1.72822136355882       1.20621193808185
H         1.06153709098616       2.24980633600063       1.60076922004663
H         2.39838496128590       1.10192783389495       1.48097783014627
H         2.41148332781785      -1.38289910397222      -0.55270679947928
H         1.03732780861637      -2.43878809638427      -0.89452850547115
H         3.39530422037847       2.51315467275683      -0.36093969720748
H         2.10512227480198       3.70157877133849      -0.10310686266285
H         3.27329435219924       3.35341234984954       1.18674984491614
H         2.89902756160872      -2.67062474279402       1.52042100290641
H         1.51671979382537      -3.73210065727300       1.18837936556332
H         2.90722087990189      -3.70240412288218       0.08795666246677
P         6.52370776280968       0.70659130480389       0.10326612789994
F         7.57870315433116       1.73201683308651      -0.66534616323375
F         7.37754458554368      -0.67085700591515      -0.30350550156520
F         5.53842086068491       2.01684631267880       0.55045202672792
C         7.68066407558616       0.95768682455324       1.65575516779475
C         5.65589095433711       0.62223716712842      -1.70312446009142
C         5.11275062904030      -0.43992518355315       1.04907877510132
C         7.78385639420325       2.36787872705071       2.30103943606796
C         4.69947506596903      -0.49661763938018      -2.23093246168342
C         4.64486321393739      -0.29479669842264       2.52722777334620
F         8.92870626898362       0.61565557338078       1.30255277923497
F         7.30569716572815       0.11416980835115       2.64108445895844
F         6.67923921095507       0.60356690089445      -2.57234958210195
F         4.98391412392436       1.77561701427884      -1.91181747375055
F         5.30672031590653      -1.75858432270974       0.87546273463096
F         3.98345962864700      -0.12333276247352       0.33178668410342
F         8.74623603708969       2.37159275459567       3.22754290801831
F         6.64679869862652       2.71151943467076       2.90462056917598
F         8.07735208768005       3.30405201577466       1.40683913674378
F         4.90661860344957      -0.71563778992555      -3.52749310397820
F         4.82163345860144      -1.66198572273913      -1.60800454704955
F         3.40913773011864      -0.11214181612847      -2.11710441522622
F         5.28357652321975      -1.11085726979146       3.34754501829324
F         3.32797926197548      -0.62726151222552       2.61222753583472
F         4.74055216318231       0.94754204999836       2.97999550773033
