43
C11H24F6NP optimized with ADF in AMS.
N        -0.68152470030835      -0.37933355665000       0.38033629779163
C        -1.18375755966524      -1.36412752884742      -0.65221549012399
C        -1.70229986874091      -0.53764285322186       1.49784899907926
C         0.70056729263280      -0.73735325363619       0.88109697679269
C        -2.70923870239098      -1.24316354982495      -0.62239632095061
C        -3.04494768664663      -0.68720096822305       0.78673074418804
C        -0.73063477890031       1.02577177785677      -0.19962527607086
C         1.79124404514311      -0.69017138795204      -0.17251919466987
C        -0.15877687234519       2.10939721186632       0.69617339335760
C         3.13399174321246      -1.04256424113789       0.47602897546921
C        -0.38692354203469       3.48323582275809       0.06644845329606
C         4.28816168691295      -1.01042523571178      -0.52117206909346
H        -0.72375951802726      -1.14591005233589      -1.62389021561657
H        -0.85066353139994      -2.35513145730478      -0.30983991854862
H        -1.41475092829958      -1.45126835876316       2.03521158372131
H        -1.60979326773023       0.29287250130233       2.20770947896155
H         0.60465129011000      -1.74920127678855       1.30235554158820
H         0.91764496738420      -0.06646645893732       1.72264315713843
H        -3.06830415007392      -0.56903112312138      -1.41320919880704
H        -3.16599484750379      -2.22623332164500      -0.80508327977718
H        -3.69236918038690      -1.36591182828447       1.35896328259710
H        -3.57366716916171       0.27435029425197       0.71660652140343
H        -0.19099099708251       0.98025328214619      -1.15771624440747
H        -1.78928686393305       1.22593472672549      -0.42347435494220
H         1.58616107145811      -1.39623887747479      -0.99687860917730
H         1.86829751797011       0.31763387274774      -0.61510861434192
H        -0.61073009164624       2.07562903694928       1.69827723339096
H         0.91839237440558       1.95095396309068       0.85085421027709
H         3.32400734615072      -0.33939734609369       1.30457803539128
H         3.06339291299464      -2.04450953530152       0.93485363035027
H         0.09673997317949       3.56588710362481      -0.92019935749970
H        -1.45977004669859       3.69780704912932      -0.05955012477754
H         0.03577453367443       4.26429311855813       0.71443702110943
H         5.24052086398124      -1.26087847864464      -0.03031701816287
H         4.13046688111703      -1.73289180075960      -1.33813309422080
H         4.39676850613736      -0.01049982157396      -0.97080972459046
P         0.46211392609967       0.71406352220023       4.64625545167291
F         1.79279417892668       0.05782642241022       5.33764453041028
F         0.14082697418757      -0.74544279553439       3.88127904208488
F        -0.48412565858663       0.26307835570451       5.90242603397833
F        -0.88847460712375       1.36384032355349       3.86705069103417
F         0.76173513779008       2.17107891387714       5.32640109309303
F         1.38237205351817       1.15846690631562       3.30544792520130
