57
C15H28F6N2O4S2 optimized with DFTB in AMS.
N        -0.79389162175147       1.06677794511142       0.03898926702996
C        -1.71889705269288       1.15846217126533      -1.14392904310795
C        -1.42561093062917       1.73919913635903       1.22761312898513
C         0.44492554215044       1.84091575794959      -0.33986085164566
C        -0.48070178668486      -0.35806951947460       0.39011153178681
C        -3.12075443122864       0.63843455264121      -0.86246831564556
C        -2.83162702808162       1.24028187035836       1.53290794685503
C        -3.73460298543391       1.39562505923525       0.31224200897453
C         1.54857615392528       1.86040231982898       0.71225294277259
C         0.30246375696267      -1.13181030110455      -0.66872004030936
C         2.73446710946617       2.66964180871212       0.16960378955734
C         0.49478908314511      -2.57927682894224      -0.19818323409936
C         3.85652332237553       2.75439782161423       1.20070842681986
C         1.28648593723020      -3.38795162237827      -1.22339797800976
H        -1.25640908425782       0.61689013849611      -1.97009604451725
H        -1.77470474716002       2.21436013730631      -1.41064300978016
H        -1.46028586535165       2.80555335246093       1.00183547962011
H        -0.77100781896488       1.57727959462552       2.08565404246890
H         0.11556060488432       2.86201023941860      -0.53911861216778
H         0.81706692103142       1.41890101252193      -1.27560902312787
H        -1.43093418484319      -0.86186349389367       0.57796512041649
H         0.08247819928347      -0.34149725187433       1.32638221278892
H        -3.11402057281496      -0.43765105866286      -0.66334079740766
H        -3.71297588388538       0.80668151229017      -1.76559710059922
H        -3.21328970992125       1.84613312296221       2.35883253248512
H        -2.81487364947297       0.19733191176050       1.86409686159745
H        -3.82401681050682       2.45550582058536       0.05607487821210
H        -4.73058713121637       1.00497636240162       0.53215559137298
H         1.88158777413648       0.84690128427262       0.95551820658002
H         1.18909779493245       2.33141117841736       1.63079864215242
H         1.28229391693195      -0.67709453519257      -0.83144481773580
H        -0.23373367657458      -1.13341918682257      -1.62094956728688
H         2.39439099590016       3.67614176891100      -0.08664558751735
H         3.10842421513958       2.19742600202491      -0.74445761778304
H        -0.48417118572851      -3.04414385084981      -0.04110877173963
H         1.02551549801935      -2.58200298088916       0.75957553877902
H         4.22139351056190       1.75858576559827       1.45830721175844
H         3.50350757026291       3.24197188549349       2.11027072482665
H         4.68518936535598       3.33456218156618       0.79550865488221
H         2.27303435031938      -2.94935682859627      -1.37655827349830
H         0.76285631333077      -3.41012347744779      -2.17969267286846
H         1.41123101942669      -4.41139200334834      -0.87074564639274
N        -0.96936383942293       6.38786245078572      -1.43960198005038
S         0.07514288553410       5.56327258428863      -2.34217363706765
S        -1.76173769066767       5.57323746172471      -0.32770114123196
C        -0.94934836917968       4.53442488395625      -3.54504343009994
C        -0.72422350442372       5.52425409165350       1.23732148739947
O         0.76624846381979       6.51030654155567      -3.16723936304197
O         0.86413382635565       4.56902511861493      -1.63670395637225
O        -1.95294905075567       4.14928608527911      -0.60418516012422
O        -2.91480461672761       6.33168910328788       0.06552515030191
F        -0.48028531730171       4.67655609536799      -4.77182027444331
F        -2.22184654915721       4.88728416340650      -3.52753751780255
F        -0.86736879018953       3.24095098172986      -3.21743697535087
F        -1.44323261574873       4.91998586510566       2.18501558156403
F        -0.39294844823541       6.72994547095125       1.65370528315403
F         0.38427900982909       4.80762134718079       1.06738066038340
