49
C13H16F18NP optimized with ADF in AMS.
N         1.34114771321152       0.15578787389287      -0.37999612492337
C         1.22088714448564      -0.11509462919805      -1.87690482198915
C         0.21182145388943      -0.54241252296474       0.34907912807875
C        -0.13450283662685       0.27858196084579      -2.42802555416456
C        -1.16073282327083      -0.15627616644624      -0.17814030654628
C        -1.27071085757531      -0.41660668124988      -1.68103020010383
C         1.32857963980108       1.62984655191751      -0.09854795792516
C         2.64889052541788      -0.40032108847370       0.09932491987648
H         1.39247900254993      -1.19796879325514      -1.98746706011106
H         2.04108023008720       0.42205971347920      -2.36522108398303
H         0.32875589966191      -0.30736251379783       1.41812271305065
H         0.38852311716087      -1.62054520932217       0.20616653957185
H        -0.13137323424313       0.00396302801722      -3.49539002167831
H        -0.25292487655705       1.37408395615994      -2.40378436575095
H        -1.37573901133900       0.90134129400737       0.04890288308604
H        -1.90395967870893      -0.74921062805183       0.38002438087746
H        -2.24859967365436      -0.07432670700040      -2.05395079349486
H        -1.21666437044993      -1.50547856616234      -1.86459809267624
H         0.39577772429237       2.06812204149972      -0.46125885365837
H         1.41387960466907       1.76936222367538       0.98693244948969
H         2.17757136314575       2.08320064184467      -0.62060347734503
H         2.66288935724106      -1.47911905373657      -0.09871337035574
H         3.45720439763756       0.09265893546689      -0.45366222712051
H         2.73245716186388      -0.20972130414301       1.17726996192787
P         4.34841888406154       1.96325744605554      -3.56422023493868
F         3.81549926324256       1.67088941990579      -1.94676293480254
F         3.07849797820395       1.06816558535633      -4.20282441797373
F         5.60259805957801       2.85348515749428      -2.95185153802887
C         3.07189335787082       3.47417889327652      -3.42503967423280
C         5.31459830552819       0.20215203344132      -3.20138769330490
C         5.09158424373806       2.28969911601234      -5.39597786036702
C         3.35071795996114       4.65220482817007      -2.44035846934764
C         6.08560266454096      -0.73322893767935      -4.19685992078905
C         5.25109369396060       3.69627491315458      -6.08315456761687
F         1.83337750265460       2.98252018436279      -3.00444500801954
F         2.83599234331145       4.05586708345856      -4.64281059000202
F         4.32156799054726      -0.65441753559635      -2.71555245694111
F         6.19116724717215       0.40905675206063      -2.16160158756501
F         4.45382626719472       1.51439518591418      -6.33251013947611
F         6.39090612033107       1.83440213570827      -5.29799496933971
F         2.30087661013286       5.52606664558628      -2.49139010464474
F         4.46689591461326       5.33553177091718      -2.74899361822362
F         3.44743328308321       4.22210706619995      -1.15317872744329
F         6.19564526829711      -1.97576750105565      -3.63215734729549
F         5.41686295640918      -0.87742955606778      -5.36234514119351
F         7.34369528068224      -0.31531751825847      -4.44448918625065
F         4.14404078363851       4.05565121760649      -6.77071264989386
F         6.26698828600899       3.62853691978505      -6.98822299572030
F         5.55861568694781       4.66595775158677      -5.19306497462132
