38
C10H20F3NO3S optimized with ADF in AMS.
N         0.58067065716910      -0.00495175449201       0.07695053649891
C         0.52073221358727      -1.35199741201629      -0.63239332907748
C         0.22359726380686      -0.36310386613315       1.51243118956069
C        -0.63623527602525      -2.10618465961864       0.01598560969846
C        -0.81822271258423      -1.47536311350212       1.41875107820258
C         1.97299916446728       0.58030471331890       0.02904075484480
C        -0.46163682095360       0.91267290347517      -0.52699370437707
C         2.51667184382479       0.80377878063229      -1.36864442640173
C        -0.46954617596342       2.32839667322716       0.01311326265865
C         3.98522602720807       1.21625546037481      -1.26198655564158
H         1.48448778165736      -1.84657127220616      -0.43610444791405
H         0.40146280070190      -1.17602775515884      -1.70920494848691
H        -0.11093905897500       0.54366511101867       2.03218456979427
H         1.15301219285486      -0.72683944539782       1.97700865951941
H        -0.36124112197244      -3.16686407493487       0.09583039957294
H        -1.55845197773421      -2.02711483385689      -0.57991463255794
H        -1.84143292591008      -1.09465298303853       1.55583769568325
H        -0.61162870260580      -2.21333361095377       2.20609314494721
H         2.61333878076125      -0.13800428207438       0.56161661457295
H         1.94955757258485       1.51098440042345       0.61605806399343
H        -0.27848826316084       0.91743653159777      -1.61120427091866
H        -1.42960879946393       0.42119155880425      -0.35259954896363
H         2.45847384930407      -0.13720175954813      -1.93856409119172
H         1.93882056285356       1.56818452269943      -1.91685180490776
H        -0.58918701856292       2.36755575629505       1.10487376241445
H         0.43730541735124       2.88301134609036      -0.26284116634268
H        -1.32813206148368       2.85696355907649      -0.42869530466032
H         4.09846530241420       2.14317132174215      -0.67856126700410
H         4.55759386113742       0.42030495805225      -0.76184006233919
H         4.41876131591041       1.38285655355053      -2.25855375402645
S         3.09911986661584      -2.61742761859708       1.59052734079170
O         1.81212471956206      -3.33529847071575       1.69259722932754
O         3.23414599797905      -1.46015479525622       2.50086300829006
O         3.53933986729785      -2.34599665586633       0.20160535006919
C         4.35392624217366      -3.86145551252464       2.22538558681019
F         4.35352331562551      -4.98057047692830       1.45432699424682
F         4.06157725971272      -4.22901909997204       3.50051736119313
F         5.61106190713423      -3.34457237238676       2.21335272632065
