41
C13H24N2O2 optimized with DFTB in AMS.
N        -1.03066884467666       1.39682373493196      -0.21181232389284
N        -2.31590756090509      -0.30534876105024      -0.11940488385001
C         1.32346977649595       2.01714106436478       0.09355232164794
C         1.87167252097573       0.63658180330387      -0.27895680630064
C         0.01326864340881       2.31847162627780      -0.63968683472645
C         3.21263323117459       0.36595729945871       0.40638311082181
C         3.75989174774742      -1.01054510284942       0.01564482517202
C        -1.37172829828933       0.28392628017215      -0.86497336308544
C        -1.74371372253182       1.50745643679066       0.95520696471007
C        -2.56771398298557       0.43007287450889       1.00974982899683
C        -2.98635248142050      -1.54296717140387      -0.50235551415175
C         5.10131785681431      -1.29193966065081       0.69079314105001
C        -3.78660686841493      -1.33716258387603      -1.78459826900657
H         2.04599429435886       2.78859696940390      -0.18858904998897
H         1.16304362366256       2.08244308055628       1.17530832402618
H         1.99298672239555       0.58200992777086      -1.36471837357370
H         1.14953010357713      -0.13295953859542       0.01498431336196
H        -0.32058850230546       3.33788683999913      -0.42703635692779
H         0.14409147237647       2.18616678260526      -1.71738011871351
H         3.08756204779081       0.41533506499501       1.49449696685102
H         3.93340073163621       1.13955740133687       0.11904820635566
H         3.88285468592643      -1.05630514213197      -1.07127128665804
H         3.03898025840388      -1.78371536211560       0.30285342559390
H        -1.05175441910625      -0.14797724455863      -1.96095444471284
H        -1.61627461712913       2.33325271180803       1.63339570475704
H        -3.29332265741367       0.13058964721620       1.74600139689852
H        -2.22227346741515      -2.31216128023261      -0.65149518156715
H        -3.63738341393708      -1.84329793156576       0.32307320137588
H         4.99579433528189      -1.27036966528834       1.77666208132548
H         5.84011966223479      -0.54374691287401       0.39991120383625
H         5.46966800155184      -2.27539069499568       0.39751219401702
H        -4.50203683840181      -0.52473727522644      -1.65989404825618
H        -4.32611124362673      -2.25342685028944      -2.02097708995425
H        -3.11742520844944      -1.09910084589776      -2.61076504146686
C         0.48920944541495      -0.61810276662577      -5.13923563646137
C         0.08809703939430      -0.11127142908866      -3.74794891872694
O         0.69886711394801       0.83707908748803      -3.25253484560066
O        -0.87068446095814      -0.74180202206555      -3.19700199479747
H         1.17286964278896       0.08343075828469      -5.61204457263477
H         0.97918876960681      -1.58478976207233      -5.02801077821280
H        -0.40010412349946      -0.74890825251880      -5.75319502833061
