29
C9H12F3NO3S optimized with ForceField in AMS.
N        -0.48993182516539       0.01866129690803      -0.42272749588048
C         0.93996653777375       0.02347520861729      -0.75599646691260
C         1.77868618926464       0.01165158004525       0.52614414310497
C         3.27189487032976       0.00934248028361       0.21443295393242
C        -1.14819464531540       1.20219148216596      -0.22886227026340
C        -1.14684937345756      -1.17169536013439      -0.27531580531080
C        -2.49890471787706       1.21200992120232       0.12968125907688
C        -2.49478725454658      -1.19859807782333       0.09235977533993
C        -3.17206673318940       0.00250709345878       0.29689408564295
H         1.19304912627716      -0.86480337380493      -1.37767877696730
H         1.19002160618744       0.92246331648733      -1.36272307590288
H         1.53269939563141      -0.89377361744420       1.12269130450775
H         1.53758045583668       0.90955894995853       1.13555473624281
H         3.54308995362716      -0.89696923978100      -0.36783693437341
H         3.84858933049650       0.00710409289727       1.16340416608761
H         3.54654291505935       0.91584915158240      -0.36583928378633
H        -0.62794230971168       2.14560779607980      -0.34418530617634
H        -0.62535420051622      -2.10676685130165      -0.43556888405096
H        -3.01713787602748       2.15003421361938       0.28146494946115
H        -3.00839780752586      -2.14297032597504       0.22012761505924
H        -4.21583244065200      -0.00396840436227       0.58374151436632
S        -0.48441821445160      -6.46304830170705       1.98122800219286
O         0.62581130136780      -6.80141901874664       0.97569006206298
O         0.29811324085341      -6.06393541649675       3.24074454028598
O        -1.05569703556627      -7.84042611517349       2.34728166726964
C        -1.70005387653389      -5.24357941929068       1.40966565214057
F        -2.31457694830667      -5.70438305985233       0.26087325167797
F        -1.05640778448800      -4.05296425794459       1.14222455559568
F        -2.65058846437398      -5.04060798466759       2.39161034907680
