31
C7H13F2N3O4S2 optimized with DFTB in AMS.
N         1.61604734538607       0.68326436656979       0.28242965129900
N        -0.48234785026291       1.15697546692363       0.32854604238786
C         0.44983029664036       0.46741643001106      -0.32348684120221
C         2.90837621021721       0.20160046702044      -0.19457707023805
C        -1.86494780317368       1.37695404287000      -0.09826943547896
C         1.42837627520202       1.53674507370298       1.33527549209583
C         0.10361965014399       1.83321250620637       1.36457444121726
C         3.45118651330145      -0.87781849385492       0.73243618831223
C        -2.35399245510064       0.29310909897854      -1.04373046737808
H         0.30856858062424      -0.13672576498556      -1.20194728367277
H         2.76140434161422      -0.18446138170354      -1.20577563148692
H         3.58091535945372       1.06277422721808      -0.24024435797516
H        -2.48209036357969       1.42346566158442       0.80344790784346
H        -1.88314723576743       2.35288116812471      -0.59586799029047
H         2.24278907878264       1.88324499879287       1.94639559267856
H        -0.45854081278312       2.48756723811933       2.00686748632882
H         3.59282962180175      -0.48424821580351       1.73855073516832
H         4.41033810705830      -1.22560232008889       0.35209114415905
H         2.76212922286028      -1.72087643977200       0.77780655502619
H        -1.82646118589314       0.34991489192240      -1.99481945030256
H        -3.41538345014385       0.45140622693515      -1.23003020829464
H        -2.21608782516379      -0.69746445816295      -0.61023264740554
N         1.82280820336797       2.98073503824903      -1.44621458513211
S         1.24549548165502       4.31916466260714      -0.80750221721314
S         1.04956982039165       2.32447132681777      -2.66235046631408
F        -0.27018362023029       3.90229825377897      -0.31105903387562
F         1.35942126871679       3.24531462718356      -3.94103178368728
O         1.94725149654064       4.51863971197273       0.42002636660434
O         1.02631996931691       5.41376155912940      -1.68751448788115
O        -0.38326254562190       2.29745396639054      -2.57236563604029
O         1.71089203964521       1.07994335986247      -2.93776075925187
