58
C16H22F18NP optimized with ADF in AMS.
N         1.74962977214327       0.63939715677699      -0.13151106515368
C         1.82245310707869       1.72143438600675      -1.19544448823414
C         1.96596990345972       1.42341410621604       1.15556238748005
C         2.85381751952141      -0.37230752164548      -0.35648717162762
C         1.11897876317693       2.93211308430175      -0.59327710233628
C         1.29075841112359       2.78103819751785       0.93925862301802
C         0.37621888417356       0.00131657750920      -0.09113402030517
C         2.99388477773677      -1.41407393738420       0.73692203138340
C         0.04267201371297      -0.87915242832086      -1.27825616828065
C         4.17373769083027      -2.34041579496234       0.41707067129045
C         4.47142674776631      -3.30203319224848       1.56311577046184
H         1.39296862437378       1.34497444794945      -2.13183511627479
H         2.89002276997643       1.92169497193383      -1.34325019977473
H         1.56519538566883       0.84340490980225       1.99592947479030
H         3.04884834338998       1.52533907308627       1.27721763838493
H         2.66842547269058      -0.83062551160705      -1.33941452715951
H         3.77876935419686       0.21505945617720      -0.42179448111051
H         1.58618140620472       3.85180110328383      -0.97230531043313
H         0.05507249459186       2.96234517013652      -0.87299289384447
H         0.32042006985095       2.83999249986029       1.45308561665571
H         1.93549098742977       3.56757506045188       1.35498463687152
H         0.33886496583057      -0.57892977203817       0.84106100045257
H        -0.34028703657319       0.83051637789213       0.00178498819155
H         3.19372693330350      -0.91475010174537       1.69998407586082
H         2.07473572542657      -2.01604111838561       0.85178355351432
H        -0.99949314658983      -1.21486804608564      -1.16931603354779
H         0.67525123919363      -1.77584728646846      -1.31943557671168
H         0.11550095701180      -0.34858285942409      -2.23760478926147
H         3.95372953641062      -2.90573980875938      -0.50648306229958
H         5.06509034809114      -1.72449029245907       0.21436871710973
H         3.59474354783672      -3.92296558231487       1.80910847692210
H         4.76417203669421      -2.74600634943693       2.46727649754685
H         5.30210534050548      -3.97403250774042       1.30170287876185
P         6.90455281745920       1.74420128953881       0.54520874884234
F         7.69538682273398       0.49967495643180       1.30415616746954
F         8.01224380571704       2.89049651564037       0.98010334461317
F         5.71027051870661       0.64303333842204       0.05573948930437
C         8.03828628883458       1.27565276295804      -0.98924808249175
C         6.00585806218011       2.01308430706666       2.36584526524803
C         5.73440298220837       3.16963643413834      -0.33502019365252
C         7.80553759386052      -0.08010444783543      -1.72749945225578
C         5.53685607528934       3.36831303303413       3.00648352173533
C         5.47883213327089       3.42709855702971      -1.85824533377423
F         9.34369218815374       1.22344375116845      -0.55991559123853
F         7.99776490522594       2.24085054002046      -1.97449686956394
F         6.91330008793787       1.57424929551931       3.29993212871700
F         4.89314587607409       1.17339006834658       2.47879714343354
F         6.03838049011825       4.40844068873605       0.16844575829361
F         4.43676548369048       2.86635700710479       0.11607130578764
F         8.77159119719138      -0.24060555094634      -2.67557578935636
F         6.60760615745464      -0.12149386144452      -2.36947109394312
F         7.87012192922382      -1.13766642096065      -0.88810585887409
F         5.23682867419183       3.13953994150148       4.32023923613697
F         6.50347554614754       4.30380280303381       2.95942053174712
F         4.40700733886873       3.88239180040099       2.44860129650950
F         6.45109346711527       4.14235764450393      -2.44501188385512
F         4.32041665160478       4.16074363189961      -1.99521419445118
F         5.28038255310254       2.27024693481579      -2.53812235042236
