37
C11H20F3NO2 optimized with DFTB in AMS.
N         0.63399183812070       0.09751339869430      -0.44438836764677
C        -0.62028499412902       0.65780980898229      -1.04586118216609
C         0.29973717988503      -1.17733553196728       0.28204823601462
C        -1.72856947781198       0.88470970147738      -0.02334599667297
C        -0.78752909389916      -0.99232335473930       1.33086492996294
C         1.27601662346272       1.06683793447790       0.51230150340699
C         1.55411394868219      -0.23094441538567      -1.59565545020847
C        -2.05841467876680      -0.41187138449926       0.71450791627940
C         1.83287872259007       2.33183549302586      -0.11629020881292
C         2.91310269683968      -0.79092347669902      -1.20853424000189
H        -0.95889337424447      -0.05900822386668      -1.79981414711125
H        -0.36198023114210       1.59286466698078      -1.54680224970063
H         1.21421750100302      -1.53540067423800       0.75903940069978
H        -0.02588929180460      -1.89781205120177      -0.47384623828478
H        -2.60744235293795       1.24032987283275      -0.56782750562348
H        -1.44345815120583       1.66300909041193       0.68879502144069
H        -0.43208050428220      -0.35219624130565       2.14174958939099
H        -0.99737280194756      -1.97676919323915       1.75654210566235
H         0.52738740832097       1.33032730092047       1.25935315307792
H         2.07510985887484       0.51395207653230       1.01241097791141
H         1.01875819206175      -0.95532738587184      -2.21629521695641
H         1.67453573906683       0.68838468898829      -2.17403549731946
H        -2.79540817366493      -0.21363380027558       1.49602825861595
H        -2.49086095011556      -1.13240814815954       0.01237598759934
H         2.21530714877479       2.94239583474154       0.70159015140690
H         2.66347557963660       2.12088258252632      -0.78682394401255
H         1.07418242767754       2.90321054736299      -0.65080168348955
H         3.45728107061573      -0.98619228047524      -2.13291699546695
H         3.48894277868728      -0.09178790777351      -0.60905740660189
H         2.82404771046537      -1.72231469211063      -0.65474423326517
C         3.91235228959951      -0.85584159887620       2.44420078395014
O         2.95838569415102      -1.13147198765856       1.69997522830653
O         4.60376225549694      -1.49760759022009       3.19637363808432
C         4.26376507901993       0.74619096505357       2.34161684962568
F         5.34057469834776       1.16297869506588       3.00682104312395
F         3.21585422182154       1.50166131594308       2.77199050949640
F         4.44002290835034       1.11384961614534       1.03881817308495
