50
C14H30BF4N optimized with ForceField in AMS.
N        -0.06937919500662       1.47820862090755       0.00359473023790
C         0.52216451599707       2.40820506273722       1.01524089880922
C        -0.73523614694952       2.36799612926940      -0.99686191742494
C         1.01350455154673       0.69506416987599      -0.67512865211319
C        -1.08189865558471       0.59855257943105       0.67257885375168
C        -0.00263036114543       3.80534381460160       0.74070827861707
C        -0.28692004194895       3.79288614550222      -0.73487832331879
C         1.76939986042111      -0.29591138991989       0.24363802934253
C        -1.77778402233212      -0.41906735650638      -0.26417963702831
C         2.97902939220427      -0.89022621740614      -0.48890469876329
C        -2.87566028966355      -1.17948468576044       0.49096663376194
C         3.71601923964141      -1.91184027340620       0.38402690137896
C        -3.59312710949358      -2.17899482892122      -0.42351678378636
C         4.91833376533742      -2.49599421846757      -0.35304434670686
C        -4.66184919677046      -2.95504378661385       0.34166893552099
H         1.63323722769189       2.46148857145255       0.94320348590672
H         0.29283159044822       2.11968808015450       2.06699185280777
H        -1.84538739138760       2.35795483280791      -0.89763646071070
H        -0.51280825693986       2.08940386386379      -2.05274860773416
H         1.75503648721777       1.39959928564207      -1.11897721685480
H         0.60163987463195       0.12342031579064      -1.53599877402724
H        -1.86867561958135       1.23330274087167       1.14302404650718
H        -0.61536363899342       0.03779703505041       1.51253235091262
H         0.73875025919512       4.58957178075967       1.00866960047145
H        -0.94695975226132       3.97219666340358       1.30534858250222
H        -1.07040914232255       4.53318470458963      -1.00804212245100
H         0.64662709855446       4.00636710636620      -1.30167569120247
H         1.09562200435763      -1.12740896865940       0.53876013137253
H         2.11999850364945       0.21147569494591       1.16684315443687
H        -1.04154012342432      -1.15820217995963      -0.64210092593952
H        -2.23071500037920       0.09819245786916      -1.13588129165548
H         3.68036844075922      -0.07188568903548      -0.76498516818806
H         2.63336435078996      -1.38870999340265      -1.42160831094111
H        -3.61864290366940      -0.45523294858720       0.89241303656559
H        -2.41863487369271      -1.72608841723713       1.34567081655217
H         3.02572004987006      -2.73877043272016       0.65907555912268
H         4.06755453804050      -1.42297470663755       1.31776507710129
H        -2.85816038394989      -2.89937030781439      -0.84422203452737
H        -4.07619099811812      -1.63676172553730      -1.26545373641648
H         5.41153571282309      -3.25997304507894       0.28272499694436
H         4.59429420156606      -2.98131472427956      -1.29837682945286
H         5.65462012904471      -1.69677513151943      -0.58457961662121
H        -5.16726887537620      -3.66767979044719      -0.34360050991839
H        -4.20070609086016      -3.52931359213102       1.17353690142971
H        -5.42314782448152      -2.25955848792365       0.75541875364875
B         7.06484372400444      -2.03580635409428       2.97667770372668
F         7.81748831556039      -2.08749764423748       4.17978961062002
F         6.48155215687496      -3.30689359322376       2.73044080197568
F         7.91980846919820      -1.68916370531374       1.89675857490324
F         6.04114204920647      -1.05975287215109       3.10166889565481
