73
C21H32F18NP optimized with ADF in AMS.
N        -1.80708033415454       1.50159191946587       0.63075959629248
C        -3.00712508178391       1.60656196147109       1.56522211828053
C        -2.24835869616723       1.87886610816201      -0.77861729371300
C        -0.75971967466458       2.52634544915010       1.03848211268875
C        -1.25803523388139       0.09153557481993       0.69214570354454
C        -4.19823597772981       0.78701435036003       1.09093411510474
C        -3.41903547152810       1.05224249842074      -1.28022668424832
C        -4.60984728141494       1.17021722434469      -0.32935936914539
C        -0.24942881491259       2.42331792286533       2.46402292917686
C         0.03084275868481      -0.15469403378982      -0.07222587906705
C         0.93702739950542       3.37375820025196       2.65711041104919
C         0.38967429338490      -1.64281679899251      -0.03850933177473
C         1.35470291196863       3.48385313517426       4.12137022449862
C         1.68877258806057      -1.94868271045656      -0.78088178334611
C         2.50977131843426       4.45791669859713       4.33133962871392
C         2.04606827500065      -3.43175818828901      -0.75739242398815
H        -3.26329336621865       2.67363845460921       1.60261331105817
H        -2.66055591603968       1.28599209607629       2.55717409861854
H        -1.36151705141240       1.79484078220425      -1.42182098718230
H        -2.53099440690343       2.93992641957781      -0.71500879184383
H        -1.23100808032730       3.50349395894817       0.87923299421825
H         0.06033565848377       2.42791188159328       0.31176265044138
H        -2.04990126352604      -0.56708667673385       0.31535091909408
H        -1.12217375003337      -0.13631945354453       1.75935438427109
H        -5.01958355567199       0.99240968895844       1.79646146316141
H        -3.99032781983121      -0.29484961080830       1.16305391110963
H        -3.13001751836053      -0.00350657305840      -1.42877272728317
H        -3.67914510130922       1.44390586237724      -2.27788069123863
H        -4.96769545818547       2.21340501868386      -0.33045317576107
H        -5.44270170971119       0.53566803973323      -0.67191901168294
H        -1.04653434004644       2.71554620588303       3.16700344018703
H         0.06754854570202       1.39634039639641       2.71765196448115
H        -0.07058423628006       0.16093145021562      -1.12395860167630
H         0.86044049833692       0.42383886007742       0.36582296627822
H         0.66454549401265       4.37594485686356       2.28531904980852
H         1.79339253664847       3.02900648410469       2.04755193968491
H         0.48057805288341      -1.97830012356948       1.01139305537095
H        -0.43304399538154      -2.23099318468594      -0.48579706684820
H         1.63211002762734       2.48299149590487       4.50181859954073
H         0.48216278760282       3.81683556877538       4.71162662879782
H         2.50972433944925      -1.36047035640651      -0.33198244538625
H         1.59530726570472      -1.60552802931408      -1.82734967073655
H         2.79957383188446       4.50812030627589       5.39164115221077
H         3.39692082566006       4.15700694984902       3.75125943329582
H         2.22612798024189       5.47316167573066       4.01138333025716
H         2.98360536307900      -3.62328261227826      -1.30034756955211
H         2.17533112447673      -3.79216374897083       0.27565782361844
H         1.25502589119760      -4.03731762467395      -1.22813617100093
P        -3.87667787618046       6.12154622597226       0.76488035893341
F        -4.74456287485758       6.23162823900810      -0.64666096519038
F        -3.70153752686520       4.44051213695154       0.49080475304771
F        -3.99084059744609       7.74021520134451       1.08086787536525
C        -2.24376235121431       6.46860688658704      -0.31948299917798
C        -5.64456951922699       5.85186208720909       1.63497018812556
C        -2.81092139617316       5.79795666676501       2.44525189093904
C        -2.42841664130958       7.06747805452124      -1.75185774341156
C        -6.39032102652611       4.50310677361110       1.42142423815926
C        -2.54515536336221       6.92062917678926       3.49373543885587
F        -1.49271852037306       5.31458376193628      -0.55410088260311
F        -1.41620013698571       7.34948489056825       0.33161595345180
F        -6.50245757941615       6.80992509272421       1.14766206087720
F        -5.61530284761673       6.02436793436644       3.00116354175004
F        -1.53266655503034       5.36905324703683       2.10255926623036
F        -3.36001540909043       4.73954478026169       3.14765691054658
F        -1.19988274330133       7.41552170977821      -2.24084300889697
F        -3.19861913990576       8.17078865965309      -1.75439827424463
F        -2.94924866815414       6.15366855325203      -2.61038753912736
F        -7.63735384844261       4.57416770549828       1.96060867125801
F        -6.52537037133856       4.18818800696227       0.11297933064322
F        -5.74911542108295       3.47118240246360       2.04432097619203
F        -1.85185875076144       6.37552972270486       4.54461081658323
F        -3.67305983075152       7.46171769964597       3.98604469371816
F        -1.78204439784234       7.90321585123934       2.96965583779658
