46
C12H26F6NP optimized with ADF in AMS.
N        -0.98319304404221      -0.26087689208660      -0.22636908310960
C        -1.33819528369957       1.15828164284930      -0.66067875700702
C        -2.24581444434515      -0.96905737533929       0.22735199917347
C        -0.04651761040979      -0.20003639265212       0.97606743159945
C        -2.44591676995024       1.19819106829192      -1.69771090639018
C        -3.35294720599646      -0.95624436336520      -0.81457772749706
C        -3.70186445189186       0.47186792192831      -1.22740465664816
C        -0.33038526049910      -1.01739151345227      -1.34312784141016
C         1.33377074100670       0.40862525931065       0.72671537852272
C         2.46216553663405      -0.60793428818270       0.53804897220744
C         3.80955141453238       0.07850167251578       0.32016159681773
C         4.94986884850661      -0.91561345154989       0.10784949518042
C         6.28871685840236      -0.23104038721202      -0.15609062745846
H        -0.42465156422017       1.62084613719094      -1.05620959677962
H        -1.64593978775241       1.67261795885356       0.26478075241509
H        -2.57614750092761      -0.44124144273599       1.13678016873791
H        -1.95047701445654      -1.99308448260273       0.50231748252058
H        -0.60721985029322       0.37202018877607       1.73034759538831
H         0.03977937728289      -1.24001757080657       1.33437592192995
H        -2.65085777567304       2.26344210405265      -1.89218018515312
H        -2.07473375730662       0.79229566124105      -2.65187120598716
H        -3.05875016723514      -1.55207984785439      -1.69492163417323
H        -4.22450366331129      -1.46493875329783      -0.36965242494028
H        -4.14081394043478       1.00366047782563      -0.36173601603012
H        -4.46523666936308       0.46352399142175      -2.02184579464714
H         0.57506452315652      -0.48625659418126      -1.65914507077834
H        -0.09953708578776      -2.02656039607904      -0.97674236352352
H        -1.01160850754818      -1.06706292356258      -2.19685780892552
H         1.31906638340537       1.09928020862383      -0.13113342135594
H         1.57125390606804       1.03587846423822       1.60389326206123
H         2.51615466546014      -1.26829535356768       1.42551797611441
H         2.25488358327357      -1.25346272038540      -0.33166556427858
H         4.03907133719050       0.72436524102519       1.18923016444451
H         3.73039020360697       0.73907960492342      -0.56036532333113
H         4.69576497132554      -1.56626401469771      -0.74862089225377
H         5.03331624990950      -1.57474936141096       0.99247750915469
H         6.22988296932975       0.39988555758472      -1.05693603055093
H         6.57668089460596       0.41546754443418       0.68888167000402
H         7.09436320463258      -0.96581914825489      -0.30816713544157
P         1.66779933023806       1.83325669173274      -3.39973165846828
F         1.14123457612147       3.17585572688142      -4.17133067754401
F         0.13465325922612       1.16236158999233      -3.51013090026423
F         2.08819954414961       1.11762684208708      -4.80865401564686
F         2.15123016643445       0.45620282508983      -2.55522358317864
F         3.16719561785260       2.46345073320664      -3.20927308477573
F         1.21037286979248       2.50961282509991      -1.92027700992355
