40
C12H25NO2 optimized with DFTB in AMS.
N        -1.51074836696896       0.39354889882900      -0.01291991908922
C        -1.82256104842672      -0.75620682830864      -0.92083240061313
C        -2.62305648308874       0.40760500418303       1.01350362206015
C        -0.19972936575398       0.22641978493245       0.68347367311418
C        -3.34200779812475      -0.78036974349918      -0.98615137595854
C        -3.77761371354817      -0.40651666863637       0.43049751846397
C        -1.53871858553952       1.66773357931272      -0.78448809487752
C         1.00372653276540       0.16509011553529      -0.25566820772003
C         2.27078710360527      -0.14432025294436       0.55025867105189
C         3.50290347871584      -0.19419490471821      -0.35884233376630
C         4.76724607626829      -0.50946961857597       0.43800985984991
H        -1.43168883446397      -1.66804902835323      -0.46071365403347
H        -1.34462178686267      -0.60016057779933      -1.88804627908944
H        -2.90009724616507       1.45660446650106       1.18155633831155
H        -2.24628219225387      -0.03413115199466       1.93769014280936
H        -0.25884644132137      -0.69638799239466       1.26772553738472
H        -0.09808237048486       1.07031765310974       1.37090925289184
H        -3.70488953129047      -1.76342432056399      -1.28851489407000
H        -3.70840944282733      -0.02988988059655      -1.69019891437498
H        -4.68685867532429       0.19477450383588       0.39643746474060
H        -3.95956142082630      -1.30114463063383       1.03194026772059
H        -0.80570349251504       1.62696589578051      -1.58703374888818
H        -2.54714445194589       1.79632550529895      -1.18707631323292
H        -1.33133271973877       2.49159944051731      -0.10554989852786
H         0.85534838108413      -0.61212654497835      -1.01054981050559
H         1.13201773579126       1.12009175430858      -0.77129475282527
H         2.15247576522305      -1.10611488946401       1.06096775566647
H         2.41107594226488       0.62593446526336       1.31593854285692
H         3.62048045527309       0.77028861973621      -0.86379695473881
H         3.35564185019602      -0.95935764862451      -1.12845771642427
H         4.93852157828027       0.25174259844751       1.20015994040294
H         5.62982457774019      -0.53505535922012      -0.22775431456192
H         4.67800058998963      -1.47925492291055       0.92931816342524
C        -5.58129393461288       4.03659667160866      -0.19595926163461
C        -4.41758730094771       3.01991869841131      -0.17648814640603
O        -3.49468109333532       3.23045008683630       0.64006233645470
O        -4.48970408912825       2.06902976219856      -0.98906433593469
H        -5.63444678226919       4.56606686763167       0.75323466154244
H        -5.39464523153689       4.75318169790592      -0.99563363847726
H        -6.52019234859631       3.52383458543247      -0.39752631489739
