28
C8H18ClN optimized with ForceField in AMS.
N         0.43580541567498       0.20586371674762       0.02012910683021
C        -0.50085739146924       1.26429535737957      -0.47336391928576
C        -0.10861778159456      -1.14847051940421      -0.30205754983788
C        -1.95475806449352       1.09960714164439       0.00743816471947
C        -1.54700635928949      -1.36675827257194       0.20288709149677
C         1.73568675934486       0.41985488307589      -0.69796585328458
C        -2.48608170477106      -0.28939564402547      -0.33052262517312
C         0.65524404101466       0.35322861816211       1.48530628890232
C         2.88249012203106      -0.52725781781058      -0.29962839170825
H        -0.52865162940399       1.26024048099794      -1.58832553632957
H        -0.14423865624990       2.27483191722221      -0.17112793991207
H         0.51915435101149      -1.94690238606452       0.14981751549703
H        -0.10168233742555      -1.31499410740681      -1.40395760287480
H        -2.58941662175565       1.85791366989007      -0.50050413950942
H        -2.04393720335271       1.29245242403115       1.09624588086131
H        -1.57293303521288      -1.37777647976305       1.31323781458544
H        -1.90668890431037      -2.35976282918870      -0.14377214233317
H         1.59075985973403       0.31889907842266      -1.79827704789301
H         2.09894359801460       1.46020757869344      -0.52765331075971
H        -3.49377323421743      -0.41944045064199       0.12022583776742
H        -2.58610305224619      -0.39299320228238      -1.43370566590222
H        -0.29235167677938       0.40043653504512       2.05446266291159
H         1.21406585465125      -0.51298269990292       1.89984204098075
H         1.22670692390170       1.27948631874918       1.71465901201696
H         3.77837463863881      -0.27777873397880      -0.90709123932880
H         3.16764164310473      -0.39909122132957       0.76423215386212
H         2.63063591829537      -1.58650127361637      -0.50414806668467
Cl       -0.19531950614562       3.94882708162596       2.35927676568564
