48
C12H22F6N2O4S2 optimized with ForceField in AMS.
N        -0.10818647906479       0.02401088393281      -0.06754234652087
C        -1.02937881691360       0.52172126689545      -1.14109709247553
C        -0.62276149622732      -1.29297965968759       0.43133568115103
C         1.22958246790880      -0.19787716829900      -0.71810694950142
C        -2.50045143361214       0.63207040424849      -0.70521495878707
C        -2.08875317070244      -1.25234489546207       0.90754018302497
C        -0.01048627997004       0.99303334549737       1.07996955988772
C        -3.00867957773740      -0.70668084954718      -0.17787161962548
C         2.37105195431675      -0.64895758565069       0.22722613475137
C         0.59941899305976       2.36643282752656       0.74594036353825
C         3.66378124562683      -0.87518222249046      -0.55256778719741
H        -1.00505557189574      -0.16926641009516      -2.01606886423388
H        -0.69925736652712       1.50464441046438      -1.53762318670721
H        -0.01846945077977      -1.65965243733912       1.28810633819755
H        -0.55080472155782      -2.06727639293598      -0.36783898140880
H         1.56079098540661       0.72373942045480      -1.24712806667052
H         1.13771895069810      -0.96781508631499      -1.51950547469934
H        -3.11478782553478       0.92488605530638      -1.58414365097445
H        -2.63519257867221       1.42710791223957       0.05647543294931
H        -2.19103870148789      -0.65117765513628       1.83431576332995
H        -2.41304746738976      -2.28534488947147       1.15924238228823
H        -1.00399072716680       1.19524259713255       1.52373971704558
H         0.57555442471749       0.55073131517254       1.91461838933610
H        -4.03505728495988      -0.58070931530363       0.22860702461291
H        -3.05595851394150      -1.44201376783706      -1.00641298867433
H         2.57791515902021       0.12113656523416       0.99761633171924
H         2.11517237637642      -1.60088142355432       0.73386502309452
H         0.63098549090869       2.97591311275326       1.67390591061855
H         1.64084625932588       2.28341259195230       0.37782031101613
H        -0.02050565107285       2.92195659174012       0.01516840551940
H         4.46965283729584      -1.18706760917029       0.14519488783201
H         3.52287427264578      -1.67506406588370      -1.31046740559732
H         3.97789621706259       0.06163394796482      -1.06028374358502
N        -3.75213250110781      -1.33047540952039      -3.48262618038522
S        -5.16497334696487      -0.73803259412640      -4.06164163358089
S        -3.04575457687971      -2.69213691896680      -4.05903052522351
C        -6.52062774286612      -1.44128218414688      -3.14470263513176
C        -1.71264814693143      -2.22939428594766      -5.14329012517456
O        -5.18260753859449       0.75360265857207      -3.88052683175577
O        -5.31706843259836      -1.06905003698130      -5.52028712666014
O        -4.03938454511228      -3.53696169687658      -4.80723068468226
O        -2.48037550337520      -3.48026345691644      -2.91096251275866
F        -7.71256323050219      -0.91621702567671      -3.60711098613254
F        -6.37683264081396      -1.13813264195823      -1.80384006901486
F        -6.53293306184312      -2.81380612548659      -3.30456147884673
F        -1.12090638470972      -3.36490964556766      -5.66292514606757
F        -0.77216902560470      -1.50627904738777      -4.43426190023809
F        -2.20294261845197      -1.45320470744925      -6.17622601320160
