48
C12H26F2N2O4S2 optimized with ADF in AMS.
N        -1.40708338524133      -0.55163643685739      -0.27069431224352
C        -1.51872143067595      -1.53004841009942      -1.43157843449590
C        -2.67767014650574      -0.63173783568580       0.56531671714901
C        -0.22037893936435      -0.86223071976958       0.61503093470190
C        -1.29633715534388       0.83580689643395      -0.88838486050361
C        -1.82305961375207      -2.95121855933755      -0.99261547041264
C        -3.01508337096001      -2.04336229882163       1.01534609639406
C        -3.11409536515399      -2.99577998357536      -0.17544232516180
C         1.15206586947225      -0.70936865884966      -0.01766105264409
C        -1.13719624464055       1.99072696748574       0.08457988411360
C         2.23773316394352      -1.07981024865155       0.99847486254588
C        -0.94379525732594       3.28200206786076      -0.71422903109417
C         3.64374582380587      -0.94018671583692       0.42153600216904
H        -0.58166578875549      -1.45443053820081      -2.00057500339087
H        -2.33785204603405      -1.14385984543145      -2.05714913551516
H        -3.49267616297976      -0.24123135070383      -0.06404249078424
H        -2.54339724897492       0.05350866682960       1.41214213937871
H        -0.35798075200965      -1.89057802543565       0.97137800365671
H        -0.31614024336353      -0.19893543858055       1.48753498396301
H        -2.20731937578542       0.96744240345683      -1.49221996993669
H        -0.44137175456448       0.78703857095501      -1.58050782748169
H        -0.97846291946169      -3.38398518356704      -0.42745578812320
H        -1.92256486911991      -3.55341833530092      -1.91105869363320
H        -3.98814700603931      -1.97137423215526       1.52825577511885
H        -2.29277566614272      -2.41695708257728       1.76243128613795
H        -3.95784587830330      -2.68382999481551      -0.81546361334780
H        -3.31903588798442      -4.02184439905390       0.16646792342498
H         1.31598510484077       0.32805698017810      -0.35221589487691
H         1.25340151593013      -1.36099440284053      -0.90237204022594
H        -2.03904780061623       2.09030196658819       0.70957719830664
H        -0.26923921033139       1.83550909981900       0.74829426142151
H         2.07674808747945      -2.11689678180723       1.34379129107431
H         2.13534185152264      -0.43391615232169       1.88937611958259
H        -0.83541279205841       4.13990440515010      -0.03563192075932
H        -0.04099571616931       3.22851136006870      -1.34383647360764
H        -1.81518863644314       3.46709803107258      -1.35946428388264
H         3.83600281543208       0.09423118870879       0.09593695518326
H         3.78068373876002      -1.59973033921197      -0.45002118816250
H         4.40775619606424      -1.20496179147035       1.16725075825240
N        -5.23466005264207       0.58968449509164      -0.85753689492297
S        -5.50091057593547      -0.04742798427606      -2.30541986088078
S        -4.99500507734354       2.17328697686818      -0.67427131646926
F        -3.96364766708605       0.05581985037489      -3.02106146588697
F        -6.49778957420506       2.80911115411772      -0.78074187048665
O        -5.65468520302995      -1.47942803498661      -2.11786398865712
O        -6.34649936416331       0.69957837618091      -3.20892381032004
O        -4.24173715023581       2.81457607949964      -1.73935420309302
O        -4.59753136760877       2.37097777488120       0.70943581562593
