29
C7H14F3NO3S optimized with ForceField in AMS.
N         0.57766388073550      -0.00103651825934      -0.00371327428932
C        -0.31646546639765       1.06749738959132      -0.52852750487004
C        -0.31395935080056      -1.07021152455983       0.52330994285936
C        -1.73170516198821       0.74049105319999      -0.08714234063519
C        -1.72632186157870      -0.75761046683067       0.06393645581333
C         1.44079970319858       0.53230357662335       1.07681656928979
C         1.43761147077090      -0.53469274806587      -1.08676768155241
H        -0.31019515637416       1.10552725813679      -1.64316854902648
H        -0.03463753836678       2.08606542632238      -0.17516139114300
H        -0.31883718747861      -1.09560532394532       1.63835282962059
H        -0.02138314354212      -2.09034789890193       0.18376734594982
H        -2.48895487834048       1.07772973220904      -0.82792611114823
H        -1.93706708656891       1.21173661591761       0.89850551897496
H        -2.48846822067145      -1.09898348932633       0.79801884871980
H        -1.91530415208790      -1.23449305825379      -0.92358623386217
H         2.13292828878537       1.31099968651303       0.68480143589922
H         0.82771483489261       0.99496647932971       1.88288009136404
H         2.05301823072067      -0.27876441229883       1.53100542507015
H         0.82189020537953      -0.99531927338081      -1.89189909877442
H         2.05029765890196       0.27559871058560      -1.54163928092926
H         2.12926335461148      -1.31511110402265      -0.69728634093467
S        -2.33058206234543       3.97489879537207       3.78356877939130
O        -1.64145740109131       3.18977066884102       2.65845509627828
O        -1.19993612635811       4.85698959197852       4.33324119993415
O        -2.51447009939857       2.91885330041340       4.88354562846773
C        -3.83980545920839       4.86238634503687       3.29959445337721
F        -4.78539444150196       3.95968227349964       2.85308182737622
F        -3.54687417729490       5.75659767660389       2.28824184668688
F        -4.34112577860240       5.55002744067114       4.38780587859235
