27
C7H10F2N2O4S2 optimized with ADF in AMS.
N        -0.67170061165251       0.67192656677538      -0.27394723681516
C         0.66731813099564       0.27470237190538       0.23364223096535
C        -0.80278934733262       1.82753220406253      -0.96648998992188
C        -1.74873527127665      -0.09327398047023       0.01030183735158
C         0.93582559209427       0.81327344871952       1.62754377736834
C        -2.03364420270171       2.21090660897984      -1.45579453589501
C        -3.00148080374210       0.25518502991181      -0.45120151038915
C        -3.14726682861451       1.41425028815271      -1.20924761395833
H         0.70061831120844      -0.82447173529467       0.19797423733606
H         1.39693932179480       0.65267186198629      -0.49755972936337
H         0.09950610735886       2.42185017254557      -1.08876009692647
H        -1.56324767628118      -0.97524744341100       0.62050552201156
H         0.83436219141125       1.90723777647100       1.65080357870666
H         1.95764699521952       0.53352510460974       1.92249717121241
H         0.22691226362710       0.39869901805779       2.35684247987724
H        -2.12606105037732       3.16375777005551      -1.97552273009338
H        -3.86226462505527      -0.35192817834747      -0.17415756282678
H        -4.13415322701543       1.72944891262897      -1.55065834928463
N        -3.23176447436671       3.41371309362192       0.94317205115362
S        -4.72474040499791       2.88808504519817       1.23480927125678
S        -2.06104667302045       3.35248128959009       2.02007548469226
F        -5.29981881743321       3.92158683308221       2.36687298407996
F        -1.93685536915893       1.71448187550620       2.38684811062149
O        -5.49999123625029       3.15763872802506       0.03666048047548
O        -4.79821055397640       1.57618723741089       1.85571856155497
O        -2.31034086839796       3.96500463647987       3.30622724013983
O        -0.81430177755873       3.61468836394693       1.30670355167055
