66
C18H34F6N2O4S2 optimized with ADF in AMS.
N        -0.26779001865635       1.87710476405256      -0.34457532366443
C        -0.99333317111633       2.65984732811021      -1.43011439657882
C         0.32308063280070       2.98769975103591       0.49485399172540
C        -1.21786459165545       1.03636358892093       0.47618718821600
C         0.81647348932973       1.02687537625230      -0.98663553769367
C        -0.05524019369204       3.81477798048734      -1.77442108586902
C         0.82463310124777       4.02223671328552      -0.51165666336024
C        -1.81000757130144      -0.14085858501611      -0.27582953348451
C         1.67071401791214       0.23104718126638      -0.01735579166181
C        -2.95785091256398      -0.76939750733354       0.51603182208333
C         2.69371510107793      -0.59375176099211      -0.80448830550275
C        -3.56076696231974      -1.96449056807092      -0.21792423447198
C         3.57539347904991      -1.45326421258206       0.09696322161415
C        -4.74463473664199      -2.59307665898096       0.51093094991317
C         4.58963866125737      -2.28471773277784      -0.68620809011641
C        -5.35697007500089      -3.74528359216140      -0.28155425221891
C         5.46934457167393      -3.14477777935713       0.21638688156892
H        -1.22076859254862       2.00895369813752      -2.27942888395469
H        -1.93422131705236       3.00567742969228      -0.97716171644119
H        -0.50828628502559       3.38239396781777       1.09904652718288
H         1.08477957696060       2.57484233503831       1.16650567922479
H        -0.66382256641437       0.70877762225759       1.36916077203271
H        -2.01151339960229       1.72616814090209       0.80586756548006
H         0.30115399923000       0.36579516897604      -1.69612796720445
H         1.42868919859752       1.70685287163932      -1.59375970274023
H         0.54633078928015       3.55687587165888      -2.65764447870322
H        -0.64162312856701       4.70839161191102      -2.02842580741538
H         0.72774220127035       5.03283013761809      -0.08892611670883
H         1.88935392803258       3.86719690064308      -0.73930136001764
H        -2.18283574522340       0.18032353255625      -1.25938403077603
H        -1.03952871973852      -0.90436181675305      -0.46941073285947
H         2.20798978600051       0.88804563362202       0.68871445403439
H         1.04973102599294      -0.45577737435007       0.58278871746054
H        -2.60286703334340      -1.08489964778220       1.51578494646289
H        -3.74440162516058      -0.01076141846348       0.68357524465700
H         3.32663211414725       0.08482200436293      -1.40438930697613
H         2.16035381990564      -1.23637089174798      -1.52765391832985
H        -3.88498177433584      -1.64037677905756      -1.22132319128038
H        -2.77845715681947      -2.72933127853406      -0.37832169850044
H         4.11217589660829      -0.80655361544170       0.81719534936806
H         2.93902653493314      -2.12939945955090       0.69917407063893
H        -5.51228488730131      -1.81826780643548       0.69103605752586
H        -4.42081881092793      -2.94990354440214       1.50617228864493
H         4.05052096791761      -2.92745873969983      -1.40524163187445
H         5.22213772897911      -1.60853400879241      -1.28978257285522
H        -5.71199707419718      -3.39544198091187      -1.26403596726151
H        -6.21052479883407      -4.19354959220922       0.24896170151543
H        -4.61306437270415      -4.53761257527540      -0.46071401053374
H         4.86038554812681      -3.85074108842351       0.80366036337110
H         6.19293608167575      -3.73103617382817      -0.37008672910769
H         6.03622686384531      -2.52069122382465       0.92590883875479
N        -1.57231516375205       1.71572686672683      -4.78300622203236
S        -3.05400100590937       1.30162302422969      -5.29567380722512
S        -0.38229561597751       0.68032106848968      -4.49371707373559
C        -4.00027561898449       0.79321764368600      -3.73663668454344
C         0.11981323165199      -0.20325929334109      -6.10700703703444
O        -3.72872425800501       2.52913753084151      -5.68288874823443
O        -3.09972749476761       0.11051038034421      -6.13235430234404
O        -0.71720050711154      -0.41653152086926      -3.57169256822256
O         0.79462166141452       1.49330340006202      -4.17053939098180
F        -5.32665971672861       0.76824282895215      -3.99947869496030
F        -3.79472632851869       1.68121648576815      -2.71324757132469
F        -3.63151148081202      -0.43344121360098      -3.29848612881726
F         1.42221842588871      -0.57301364572398      -5.98335775071645
F         0.00599637223463       0.62646664647595      -7.16438666272935
F        -0.61286650153171      -1.30968731752949      -6.32062405921040
