55
C17H35NO2 optimized with ForceField in AMS.
N        -1.11076172835726       0.81974161157549      -0.19956377648814
C        -1.59028131639054       1.87127458238104       0.75699237767437
C        -2.08808459128481       0.71870144013166      -1.33248401848419
C         0.19238158618822       1.27578180214006      -0.79628406361897
C        -0.95960477270726      -0.48933161286727       0.52831623984887
C        -3.03578574394230       1.66035818586275       1.25036290921133
C        -3.53743150252423       0.45261934699885      -0.89104075732852
C        -4.00660117456273       1.53024138996005       0.08120940438039
C         1.38543146626805       1.36616679458897       0.18707861689411
C        -0.36757167344318      -1.65624527678699      -0.29998337868764
C         2.64581750327651       1.86911304388702      -0.52751947873275
C        -0.22868468137415      -2.91693703571303       0.56378432462160
C         3.83669361813192       1.91480294731339       0.43651806938799
C         0.35656173260751      -4.07979775989214      -0.24626291266908
C         5.09495298664150       2.41735867319740      -0.26170058399871
C         0.47471539106573      -5.34045451755954       0.60494187139157
H        -1.54350330568777       2.87936737429940       0.28358472522921
H        -0.94602859925649       1.91212663358691       1.66110057487482
H        -1.78765665936337      -0.06127046821581      -2.06220834585120
H        -2.09860832994970       1.67110841796340      -1.91312714331568
H         0.06492575214143       2.28241414786635      -1.25820137114162
H         0.48552906803269       0.61325919837056      -1.64090160208957
H        -1.93374763061290      -0.83803380752998       0.92116167989258
H        -0.33385732058019      -0.35090855035287       1.43710833337811
H        -3.33601516561337       2.53457043352597       1.86778154939602
H        -3.10556757728448       0.76867134145052       1.90762568316314
H        -3.64297120998179      -0.55474667033539      -0.43829930593849
H        -4.19518503864706       0.47079578356949      -1.78667976964527
H        -4.07927357924715       2.50495950800349      -0.45026080403059
H        -5.01694307781247       1.27106112882654       0.46430494829103
H         1.15620747563384       2.06846334967872       1.01382471882900
H         1.61306738287991       0.36948273651524       0.61640920677992
H        -1.03118744836984      -1.89849893652996      -1.15437101310752
H         0.63756732558268      -1.39663617289536      -0.68856545421233
H         2.45893456383017       2.88856996958534      -0.93162879796472
H         2.88638740309262       1.19030056883428      -1.37552311682086
H         0.43833240216154      -2.70071219553434       1.42754616960317
H        -1.22912911733879      -3.20794477569568       0.95368025417808
H         4.03317273597071       0.89655134732437       0.83776023267212
H         3.60507063527434       2.59031707653312       1.28870135670686
H         1.36588424243860      -3.80386855748513      -0.62239993913588
H        -0.29751078706269      -4.29609891877435      -1.11893209735068
H         5.93664593862392       2.42349762793938       0.46186720675415
H         5.35877255054396       1.75049755681858      -1.10994468011170
H         4.94196013911667       3.45056235109666      -0.63985979372692
H         0.90244685798530      -6.16285817566438      -0.00641208876362
H         1.14287444482945      -5.15840691036350       1.47353547087569
H        -0.52633728280464      -5.65394488583107       0.97079294152111
C        10.30852826549223       2.93177853650483      -1.24204888152262
C         8.84919567555378       2.76840488624043      -0.96077073090646
O         8.23199824058294       3.66576515000169      -0.41038312336327
O         8.27163788573533       1.74183425054810      -1.28000380971312
H        10.46196445822295       3.80313258442193      -1.91239612791642
H        10.85424650098856       3.10183139868676      -0.29035682866620
H        10.71746611180611       2.02334061099807      -1.73365429415248
