69
C19H36F6N2O4S2 optimized with ADF in AMS.
N         2.15088426695077       0.67366075517197       0.48136867822823
C         1.92554127985084       1.99413289540761      -0.24126036118656
C         3.10954062444731       0.92233519044780       1.64041790457761
C         0.85885187575986       0.08385807599350       1.00730076087883
C         2.81877601504487      -0.25480452198468      -0.52191338062835
C         1.41761052841809       3.09977548544412       0.66389820954482
C         2.63411591473337       2.02315072764041       2.57477016590132
C         2.39237813260652       3.32767965480286       1.81843454087234
C        -0.15315122468214      -0.33987479903324      -0.04547532380383
C         3.20067397648745      -1.62721768670376      -0.00648145941941
C        -1.44472283543806      -0.82961627638250       0.61855856375346
C         3.82790631294247      -2.42472140033022      -1.15498276161365
C        -2.49169889639269      -1.28604277790949      -0.39731120880226
C         4.37282098325687      -3.79381089264603      -0.73889075676120
C        -3.78820111969793      -1.77286484124212       0.24915198137084
C         5.49911718306560      -3.72931678270052       0.31078120552467
C        -4.82633913485477      -2.22546607126404      -0.77539592243490
C         5.02695155640930      -3.94851310773146       1.74934535696250
H         2.90904008900276       2.28038865118216      -0.63694942532485
H         1.25396413049380       1.78756252364151      -1.08534733165012
H         3.22819554865032      -0.03565964418183       2.16334536507323
H         4.06815525480504       1.19540191113871       1.17290339169258
H         1.14901363405261      -0.77534672974306       1.63005876878440
H         0.41674600047624       0.83751785665260       1.67046192781664
H         2.13344308776161      -0.31875111297591      -1.38027433347189
H         3.71635951382392       0.28569119021079      -0.84923630721392
H         1.35037764868764       4.00502982616040       0.03850169214612
H         0.39803447756531       2.88954570297273       1.03348378774018
H         1.72997071057481       1.71518704245476       3.12903286438296
H         3.42848569358880       2.15497776623127       3.32817282248102
H         2.01166642955273       4.10513885439665       2.49956592863778
H         3.34769996476242       3.68776072695150       1.39689024478712
H        -0.39610550922744       0.50204294960740      -0.71554658358846
H         0.25426006939155      -1.15005949808669      -0.67199072827850
H         2.33079361667177      -2.17862810532890       0.39282711048064
H         3.94642570159303      -1.52079086701163       0.79316112323601
H        -1.86910372763975      -0.02151848649256       1.24269843531084
H        -1.21293291461817      -1.66545673671663       1.30462038986570
H         4.65598005079395      -1.83172398359416      -1.58264050637387
H         3.07912910431844      -2.55447171306161      -1.95855053734254
H        -2.72009553543660      -0.45222949837540      -1.08764347397725
H        -2.06820613207502      -2.09652068521436      -1.01990486637713
H         3.54790625874484      -4.42981960013404      -0.36330914886761
H         4.74705112717499      -4.28589433814765      -1.65246523731227
H        -3.55956131258941      -2.60577529709729       0.93912958641798
H        -4.21022544842448      -0.96219125739913       0.87121277391224
H         6.25659033779452      -4.49698146555267       0.07706141896051
H         6.01609776090058      -2.75650793008110       0.23040319917278
H        -5.75140097878689      -2.56742088556695      -0.28761461442290
H        -4.44179318821787      -3.05742076233687      -1.38717728567053
H        -5.09117256683367      -1.40260376597340      -1.45923614028744
H         4.26263971877910      -3.21544073831319       2.05063337095837
H         4.58516619711376      -4.95200440078508       1.86757489049172
H         5.86520769622612      -3.86304748788435       2.45842693507657
N         5.51265170428849       1.97235410307233      -0.52579040375217
S         6.53345054378555       0.72064401815232      -0.60933380687088
S         5.51060417509385       3.24165803474240      -1.52765544617912
C         8.27708825486306       1.34308596021389      -0.17416842844615
C         4.85791886451449       2.61543481515513      -3.20253831775590
O         6.17592386839542      -0.13688688541314       0.52372731849310
O         6.67262632974078       0.12696988664680      -1.93533365058537
O         6.81394660648263       3.80699217912654      -1.83563646610997
O         4.41306827024056       4.09109053875586      -1.06293221800245
F         9.01345014517366       0.27193623052461       0.21345008943680
F         8.22852992289216       2.22810178598855       0.84726121934418
F         8.87870118710890       1.91531380781713      -1.23064769661221
F         4.34443765491378       3.66474803257476      -3.88860971061661
F         3.85101315670159       1.70722443536726      -3.01899368441900
F         5.81884488894598       2.04404235294933      -3.94565444645477
