34
C8H11F6N3O4S2 optimized with ForceField in AMS.
N        -0.53328716472945       0.18504552349281      -0.35620957215963
N         1.65301048532088      -0.07428271874980      -0.05380651633522
C        -1.93271746422831      -0.10626466500285      -0.65226185563350
C         0.49856067317727      -0.68076875195329      -0.39039322727309
C        -0.01440876270877       1.37452434201570       0.00933045113354
C         1.34380586531009       1.21359612309195       0.19088296511482
C        -2.73474255725075      -0.20761587105565       0.63939608185232
C         2.97335761301404      -0.68296655400913       0.04131197159518
H        -2.35311827265440       0.69573238723613      -1.29704011072351
H        -2.01138224831997      -1.06815898200366      -1.20419531948514
H         0.40953372026154      -1.72894218011620      -0.64776910071462
H        -0.57956444367803       2.28969427700267       0.13089883993240
H         2.05193230521977       1.97872294899321       0.47273082550586
H        -2.32306748867210      -1.01878193712396       1.27718602754862
H        -3.79460936402309      -0.43928875932128       0.40425586501010
H        -2.69137644213631       0.75213890259855       1.19652169103633
H         2.91759668352143      -1.76986682303374      -0.18203731693777
H         3.65955665292798      -0.19990958348241      -0.68523887077629
H         3.37368004217697      -0.54853698499191       1.06854168229686
N         3.99932276829587       2.88806711577014       4.93229162984376
S         4.22167009850641       3.57540608836944       3.46160302930366
S         4.24636612093941       3.69622414604304       6.33621014449139
C         5.87807331013829       3.23963479455321       2.90080622635630
C         2.68157204891443       4.27339652590232       6.95943364257715
O         3.25074649890912       2.97196319668150       2.48958791342955
O         4.00517435609113       5.06170336291438       3.52854725505257
O         5.16515077666975       4.86751317665912       6.12529471873152
O         4.85105731855050       2.75846668572973       7.34204358828282
F         6.06227439032086       3.79013395792900       1.64674069546982
F         6.07504296453190       1.87334183100485       2.83429061039521
F         6.78905137220113       3.79104467222752       3.78131411441708
F         2.88210314758016       4.97069803533094       8.13539260022276
F         1.85394018927354       3.19363897869809       7.20246724626267
F         2.08754062694868       5.10490790429961       6.02915260087648
