55
C17H35NO2 optimized with ADF in AMS.
N        -0.81012336778303       0.15154106813937       0.43196673495664
C        -1.08804020321836       0.80938134651333       1.77802498541542
C        -2.10541147047831       0.14711041664400      -0.36388005475006
C         0.19308066266747       0.98739676677483      -0.33101185246891
C        -0.30377672913425      -1.26981667501957       0.64677629241052
C        -2.22953787868043       0.15942306743107       2.53306361154398
C        -3.24103571063076      -0.55070259695774       0.36274711259246
C        -3.51356860151283       0.11591625824904       1.71075708821420
C         1.56292815204578       1.09604832079746       0.31638274130185
C         0.20347849580396      -1.96978204110703      -0.60243529530461
C         2.53702651412906       1.84052751150318      -0.59750748937261
C         0.49200909621968      -3.43627123770878      -0.25934338903054
C         3.91947906706766       1.99458378224334       0.03430486830190
C         1.05424071190121      -4.22623347440202      -1.43830945179258
C         4.90496135934235       2.72050917768633      -0.87700127636525
C         1.29677735823111      -5.69208683350204      -1.08446418299213
H        -1.29232601899216       1.86924503738318       1.54178571295764
H        -0.15769120099788       0.74076551080470       2.35715284407559
H        -1.87932142654100      -0.32063219538751      -1.33222836361880
H        -2.34288241690418       1.21090288655995      -0.53931392712025
H        -0.25914779547222       1.98524637327815      -0.45030422755693
H         0.27458823081350       0.53424319089820      -1.33066196718786
H        -1.12975114586565      -1.86424223611683       1.09256140639460
H         0.47180304199510      -1.20763060613375       1.42236695593352
H        -2.36995584887214       0.74620734383548       3.45768942490189
H        -1.91125287870135      -0.85857470297947       2.85027316253161
H        -3.00593205412171      -1.61655728766505       0.53760299406453
H        -4.12641846759282      -0.49971915223878      -0.29402851994324
H        -3.91539456285207       1.13661124636636       1.55385519833300
H        -4.27687059624729      -0.46115018701763       2.25608881695607
H         1.49509722328417       1.62894544102697       1.27876582353796
H         1.96579253556690       0.09280880081200       0.52848569690266
H        -0.55743415451800      -1.94715509538183      -1.40378302962876
H         1.11866875594672      -1.49984998671781      -1.00904085146558
H         2.13281037320986       2.84066943688052      -0.84201346302528
H         2.63091734680788       1.29681320205421      -1.55602054209301
H         1.20562397021121      -3.47838194381934       0.58429572772011
H        -0.44166080674033      -3.89542801181042       0.11079695987211
H         4.31270744281648       0.99370786989102       0.28879212424007
H         3.82111255471467       2.54108272959981       0.98979430601357
H         2.00049004459722      -3.76470314653889      -1.77865896982886
H         0.35297159217516      -4.16281850563985      -2.29150857828368
H         5.89249378387102       2.81975887396869      -0.40190262932099
H         5.03971379954698       2.17516668485812      -1.82488166403233
H         4.54453793542012       3.73281455631130      -1.12048102836676
H         1.72297211001788      -6.25103253798847      -1.93156506797181
H         1.99335609176036      -5.77959374737937      -0.23508893785514
H         0.35497953291559      -6.18182863804080      -0.79083925771241
C        -1.72892700297687      -4.75966847855281       3.53616200997239
C        -1.63901016191497      -3.38945932153454       2.85202495052657
O        -0.99977939665859      -2.47821246347511       3.45369173818197
O        -2.21440739227149      -3.29050165663709       1.71578786894130
H        -1.28352868025387      -5.52816489976487       2.88531096191017
H        -1.21124192057858      -4.75013075667891       4.50469056799611
H        -2.78486933136797      -5.03489977991429       3.68213043758796
