58
C16H36BF4N optimized with DFTB in AMS.
N         0.26581667181060       0.09309995135198       0.18248140418944
C         1.10752620934284      -0.82898069248831       1.02944639758665
C        -0.75058622929956       0.74179559608788       1.07577849940841
C        -0.38165340101694      -0.72515713267821      -0.90722447135682
C         1.10062698202015       1.16382954068619      -0.47175597912883
C         2.05020974924968      -0.15747062645724       2.02289652356020
C        -1.76980874833575       1.63709356361968       0.37291681426084
C        -1.36502451450561      -1.78929172318270      -0.42952850603640
C         2.28353781252420       0.65290767682252      -1.29271273240420
C         2.97280815131096      -1.24103128798519       2.59982002665714
C        -2.76092341194306       2.18417408245709       1.40810648513020
C        -1.77259718749689      -2.64713042439190      -1.63447932898956
C         3.12622429403227       1.84170109578951      -1.76709256963086
C         3.97423720876545      -0.64667370082342       3.58622396531714
C        -3.79763796255587       3.09165703146871       0.74962685383358
C        -2.78062484989865      -3.71891761507204      -1.22831662189304
C         4.31749719788545       1.35550758751637      -2.59014229494206
H         1.68359564952620      -1.45033395311274       0.34437344942264
H         0.41702170705085      -1.47787802933193       1.57084388296888
H        -0.19647195132807       1.32933682499120       1.81229675374648
H        -1.27172618874350      -0.06094757407105       1.60302549842998
H         0.43005278047273      -1.21673004706557      -1.44507686816209
H        -0.87781745755398      -0.02771164115421      -1.58657820380234
H         1.44719741159734       1.83071625893850       0.32220287354110
H         0.43103708626697       1.73207498978194      -1.12205224118891
H         1.49285542590248       0.32777441690108       2.83092907122119
H         2.66783970852991       0.59976675689781       1.53514031312902
H        -2.31988329833043       1.07314607867645      -0.38400461288076
H        -1.27140677943051       2.47445964071030      -0.12210326990506
H        -2.25218751206285      -1.33469040534045       0.02279558654002
H        -0.88963549511668      -2.43999140517551       0.30675044141080
H         1.92952259079946       0.09474884408908      -2.16122461793663
H         2.91224853953279      -0.01905101038291      -0.70692946675209
H         3.50971442641470      -1.72256467831310       1.77647350943609
H         2.36903407289679      -2.00374323024917       3.10137979248782
H        -2.21504050648032       2.74614075208057       2.17317914374061
H        -3.26738356598140       1.34875433927176       1.90251552092655
H        -0.87622103987847      -3.12355672462096      -2.04156041040221
H        -2.20575308372812      -2.00879571485792      -2.41226147032280
H         3.48533017453678       2.40778116214344      -0.89989454387307
H         2.50860070263136       2.51398592626900      -2.37337039034047
H         3.45775700803273      -0.15997644341016       4.41553159010996
H         4.60783406835712       0.09000145582407       3.09047183244168
H         4.60887234411817      -1.43579145914683       3.98882829680639
H        -4.36007955085084       2.54312670233024      -0.00674044698772
H        -3.31218994577443       3.94382545926564       0.27258530716696
H        -4.49465759910821       3.46333011313574       1.50030671531486
H        -3.68824466582147      -3.26423332249533      -0.82703228068590
H        -2.35362812290432      -4.37375565249114      -0.46804171683443
H        -3.04798095572195      -4.32240170134631      -2.09560402816460
H         3.97450649745348       0.79668066314712      -3.46102297212707
H         4.95290345246616       0.70438175856251      -1.98938849796028
H         4.90880038268235       2.20596157617005      -2.92996033403604
B         2.32786471318845      -2.95869276799336      -1.41793038126199
F         3.22218578118872      -2.24334905017114      -0.57875735450476
F         2.89364048209276      -4.09795507668235      -1.90655366821574
F         1.91973729710285      -2.08128232634960      -2.45177511223167
F         1.16708468808523      -3.24073460414566      -0.64572734682621
