46
C12H14F18NP optimized with ADF in AMS.
N         0.27186032447096       1.10192868552851      -0.12571444014744
C        -1.08646217292968       1.24617283394015      -0.79528764560598
C         0.69768372426285      -0.29117731014739      -0.55027409360356
C        -1.75010820130615      -0.11568078922855      -0.62653798716141
C        -0.58059129880825      -1.13288008593381      -0.51233563065783
C         0.12894737947576       1.17386404040392       1.36000566331945
C         1.24149199193880       2.13994087338859      -0.59557906476012
H        -0.89162345935428       1.47000796562165      -1.84960447799091
H        -1.61898976015604       2.09576449644186      -0.35126592856533
H         1.50673520024107      -0.63321239108681       0.11044545945978
H         1.08026945012246      -0.18912452788681      -1.57391546334540
H        -2.38968639539317      -0.31216192380359      -1.49847495864019
H        -2.39367415857130      -0.15001729884424       0.26511328183468
H        -0.64818927957647      -1.72099055021224       0.41471195147606
H        -0.57477129278328      -1.84535859923170      -1.34922351145980
H        -0.24711913332473       2.17006707571928       1.62351685080068
H        -0.57901176667480       0.40696732325972       1.69438825523047
H         1.11092547875209       1.00654680566931       1.82067748510076
H         1.30783072865645       2.08862364102786      -1.68803729713404
H         0.86282506579255       3.12857266546703      -0.31114238955483
H         2.21419039634008       1.94446839673158      -0.12541942771511
P        -1.27494628844291       3.20828681945581      -4.33195717702346
F        -0.11212172146408       3.24184590305605      -3.08655875516095
F        -1.83790274140491       1.73853824574208      -3.70361756296815
F        -0.73214345033526       4.64250012515840      -4.96285845243404
C        -2.41318524747854       4.23984155635163      -3.06643179611566
C         0.14468041929925       2.27847477541293      -5.37357912364282
C        -2.71197247082365       3.00702449544072      -5.70046883387623
C        -1.71519164486359       5.15275751631802      -1.99667739968007
C         0.41819097796112       0.77186738090020      -5.09223713128439
C        -2.89476607879493       4.04583725781452      -6.84962540786541
F        -3.23404364634820       3.41426436409548      -2.31133371204852
F        -3.22577883355207       5.10788243644373      -3.75048157106680
F         1.35240479641094       2.90141639760580      -5.11700529046257
F        -0.03986181502107       2.36349382041711      -6.73020918722951
F        -3.93146344788518       2.94229316775836      -5.05819241943256
F        -2.55305514709519       1.79091753310665      -6.33034298545458
F        -2.65119786637696       5.95515953412521      -1.41834125625755
F        -0.75636757288196       5.93943659943865      -2.51394866573713
F        -1.16203642295601       4.42269284481428      -0.97186843207354
F         1.49539754328280       0.35008193453538      -5.80690445999070
F         0.72205778031785       0.55999858489632      -3.76624926516776
F        -0.62179269189630      -0.02124937078790      -5.40892169018803
F        -3.90229586238764       3.62236018293073      -7.66792850632422
F        -1.77906913678275       4.16789871711239      -7.60072666059307
F        -3.23304740915567       5.26732374263313      -6.38349007900220
