22
C8H8F3NO2 optimized with ForceField in AMS.
N        -0.70279004450177      -0.00616990337324       0.02417614761592
C        -0.02324405189168       1.18045191125327       0.00777995920909
C        -0.02583384804940      -1.19434720444729       0.00790857832038
C        -2.16732470551608      -0.00457336227463       0.01501383088634
C         1.37366395454529       1.19682440227649      -0.01034141530320
C         1.37117657101593      -1.21376856560721      -0.00496396563770
C         2.07223399224099      -0.00907665303096      -0.01289632075065
H        -0.55922704094450       2.12158576392611       0.00790332014179
H        -0.56369101668091      -2.13515347979936       0.00414663263099
H        -2.56699694601280      -0.89986832210520       0.53892318177483
H        -2.56538309260227       0.89301863182836       0.53624515667276
H        -2.53146689649095      -0.00580410872671      -1.03383014044336
H         1.90983952342876       2.13636733322457      -0.02538259505127
H         1.90456363348521      -2.15561358410637      -0.01221627531419
H         3.15453031985498      -0.00978468853408      -0.02515665613331
C         0.83168489966059       5.63457324763637       0.37157583058141
O         0.82113342826145       6.69182089885856       0.98224491628373
O         1.33988649307735       4.64893931649748       0.88122729086658
C         0.22673363136393       5.54081774044488      -0.99795530873519
F         1.19765643620116       5.16293952321341      -1.90695662212587
F        -0.29953641780800       6.76225202890419      -1.38141413448245
F        -0.78418437383728       4.59810411134137      -0.99396520080664
