43
C13H24F3NO2 optimized with ForceField in AMS.
N        -0.55469702457422       0.09692738302041      -0.09731390702277
C        -1.55146282027577       0.54693692479377      -1.12309738695549
C        -0.89982800583795      -1.29900929904106       0.32952729573274
C         0.78327466282768       0.07431860153418      -0.78540355748034
C        -0.54254349858405       1.00029426577639       1.10573894580854
C        -3.01498657410245       0.45608410904844      -0.66077991857594
C        -2.35694198857447      -1.47140944137102       0.80731524539451
C        -3.35271367044217      -0.96883218871912      -0.23432129774382
C         1.99692147252686      -0.29963539980812       0.10208874394838
C        -0.13004866345832       2.46016102733743       0.84222970011702
C         3.28508824498230      -0.33661356844090      -0.73225300154715
C         4.48906705300365      -0.72514926399479       0.12225787191346
H        -1.46555251766217      -0.08195528218701      -2.04035708709215
H        -1.34698743379813       1.58371068755463      -1.46282689152871
H        -0.24773735018540      -1.63233300930662       1.16528736319696
H        -0.73719675820685      -2.01452245620321      -0.50903903027922
H         0.99198875949814       1.05914513339400      -1.25974725318377
H         0.75835678902242      -0.64942773259099      -1.63328296283659
H        -1.53718806708472       1.03809676320698       1.59067318812505
H         0.12854624859949       0.59234141120945       1.89218587971358
H        -3.67607346043167       0.74165287074876      -1.50768986796827
H        -3.22320833842384       1.16985248357859       0.16261704965123
H        -2.52191976207058      -0.95150257364907       1.77391646354989
H        -2.54746688834588      -2.55132957768722       0.99052534848611
H        -4.37946332563716      -0.99483024370282       0.19058771445771
H        -3.33215892968151      -1.63857275200314      -1.12237297154449
H         1.85233660733663      -1.30038648320488       0.55726184324923
H         2.13449186547857       0.44810253487868       0.91006691671117
H        -0.13909925871903       3.01058266274212       1.80679785990356
H         0.89691528084362       2.53690532978601       0.43393358760657
H        -0.84655573273907       2.97456653839648       0.17174743593486
H         3.47036929161713       0.66397225442751      -1.18084154876346
H         3.17912104675490      -1.07542908419731      -1.55660894966485
H         4.33982866488986      -1.73174409436527       0.56757058030204
H         4.64350449714334       0.01724892775486       0.93396956643045
H         5.39969867318788      -0.75348251400801      -0.51059477093930
C         9.60552575434913       0.07277456965533      -2.83263089931927
O        10.06860185114509       0.70254993625901      -3.77040754163603
O        10.32002747699037      -0.20843027622335      -1.88373670087656
C         8.16896325016454      -0.35731526812019      -2.83955868918275
F         8.10092458222028      -1.73837039047830      -2.82767132902258
F         7.52256397947093       0.11713025020242      -3.96811397419614
F         7.53549099858258       0.13997412699695      -1.71635854207341
