51
C15H29BF4N2 optimized with ADF in AMS.
N         2.14452916770225       0.62862061425163       0.96894191281114
N         1.90627808827467      -1.52297571647040       0.85812191809457
C         1.05164929754772       2.76934949832895       0.42824592930895
C         1.97984812389134       2.03117127154401       1.39009266110474
C        -0.12978221427766      -2.91227566308156       1.01378800854197
C         1.38905493108566      -2.87499863911283       1.14117868960505
C        -0.34655076334572       2.16610116797985       0.41812578878596
C        -0.64562490062211      -2.43395034023514      -0.33977948999201
C        -1.31325735390284       2.85048507212355      -0.53940397950513
C        -2.16326789223066      -2.27441923061523      -0.33779343327214
C         1.65560677307753      -0.44052804857642       1.61233607693300
C         2.70463466763914       0.22355883753677      -0.22549845128334
C         2.55248563061264      -1.13107932425641      -0.29512682188693
C        -2.70810402655814       2.23396168622328      -0.44751278381419
C        -2.71302727874136      -1.78363976256959      -1.67343953351150
C        -3.70517726210133       2.84884158464969      -1.42294123107053
C        -4.21431381795152      -1.51442616294654      -1.61968625733419
H         1.01612610984858       3.82315495564117       0.75697348108006
H         1.48719165945919       2.77513472526779      -0.58914925663611
H        -0.56343693291027      -2.28959235260507       1.81288766528237
H        -0.45028036447000      -3.95115476709683       1.20774774177749
H         2.98381422589408       2.48152321222838       1.43118254540886
H         1.54094214026085       2.00047906711721       2.39806402685187
H         1.71012208212377      -3.15020145268478       2.15692787805525
H         1.88327984219434      -3.54420457299491       0.42146062717618
H        -0.75340429888840       2.18475317195565       1.44240990773923
H        -0.29174848467116       1.09467664154075       0.15528458303831
H        -0.32847299902354      -3.12525006208730      -1.14584255671617
H        -0.20367129700517      -1.44836022721102      -0.57760048934149
H        -1.37071731026627       3.93200326201564      -0.30896478422293
H        -0.93755104061937       2.77115258682915      -1.57860812659805
H        -2.42900223925934      -1.55930863337476       0.46092977974454
H        -2.64033492433206      -3.23690038549834      -0.07221288986876
H         1.11115414092843      -0.45678009811047       2.56160825210733
H         3.15533937100759       0.92563955179608      -0.91505756410154
H         2.84332490730178      -1.84126500346206      -1.05923003921262
H        -2.63022120616804       1.14769322964627      -0.62726216697051
H        -3.07500513168816       2.33847786632030       0.58909673712417
H        -2.49110981597938      -2.52666133112433      -2.46254511609393
H        -2.18302267744530      -0.85688534854611      -1.96321795714407
H        -3.80598367093065       3.93346893544846      -1.25422377946573
H        -3.38314317778891       2.70131398230409      -2.46672970284527
H        -4.70186483228533       2.39549698687137      -1.30950295293881
H        -4.60136300213455      -1.18615298206698      -2.59632410669939
H        -4.44153923961233      -0.73042782871118      -0.88006449103228
H        -4.76458831967510      -2.42139773162170      -1.32107943411142
B        -1.00039557446278       0.02833638448571       3.57419561327086
F        -1.51139469073438      -0.13447873986358       2.25133983094712
F        -0.10381331833247      -1.08662738419077       3.82813961380262
F        -2.01874956692697       0.07194047748647       4.51718939127050
F        -0.19363637860829       1.21746293682210       3.60707152320693
