61
C17H24F18NP optimized with DFTB in AMS.
N         2.00942171063730       1.52340880890239      -0.28919324342489
C         0.51078146985669       1.45215850379531      -0.23989629851168
C         2.42390512310345       1.84960985916406      -1.69900546745837
C         2.59366870108978       0.21730996500781       0.17902370860655
C         2.46871323649523       2.67060902846163       0.57982482770596
C        -0.08255632982021       0.47206898492355      -1.24674029591336
C         1.87769114639900       0.87764364799870      -2.73355292268363
C         0.35421534974580       0.81337073763701      -2.67000629769109
C         4.11400626907608       0.19984072939512       0.33246852486450
C         2.14887354684728       2.52492746181183       2.06591685001565
C         4.56697099222704      -1.21148048334795       0.70224621277468
C         2.65530719655415       3.75959360999540       2.81245741126713
H         0.22173991207791       1.16526678150238       0.77262852944257
H         0.14044932361897       2.46111878879421      -0.44158995528226
H         2.05928255901492       2.85846759861295      -1.90578227450720
H         3.51039472626735       1.86079373081163      -1.73499951437896
H         2.11694180631656      -0.01850320994790       1.13397486471979
H         2.29500564190160      -0.54598059639660      -0.54174877007049
H         3.54406862234812       2.76992141123916       0.43580426907204
H         1.99074711121482       3.56993503783830       0.18444569813554
H         0.20501135277368      -0.55312590214427      -0.99872656806328
H        -1.17053571975177       0.54006772102804      -1.16267709677883
H         2.19690414838468       1.24097843845742      -3.71352475686764
H         2.30628355278075      -0.11853330250559      -2.59622330358313
H        -0.01877196584771       0.05512422151905      -3.36206194335891
H        -0.06845049768975       1.78016515174173      -2.96143287253197
H         4.59555264498514       0.49235114564111      -0.60029124120662
H         4.43105582600164       0.89208464965015       1.11474450328679
H         1.07035485249481       2.42887902185778       2.22224878555399
H         2.63296765720490       1.63685706698049       2.47938895772643
H         5.65070164651586      -1.22191072801978       0.80811972361270
H         4.28634797372526      -1.92287604349448      -0.07549427867876
H         4.11968422314016      -1.52778965269150       1.64547823935552
H         2.40217017822572       3.67548548959384       3.86863087408503
H         2.19816477201734       4.66466739458756       2.41250926814365
H         3.73664816796935       3.84324522515246       2.71736382841244
P         6.67873793924158       3.53904119088760      -0.89130110141509
F         7.42500952203767       2.25274005289087      -0.12288352564100
F         8.08373266098492       4.41171148788834      -0.83379149431064
F         5.16436654998623       2.67858732932584      -0.95500921158651
C         7.17447245405994       2.59140155533135      -2.54510352862012
C         6.09347037478859       4.05128888790733       0.91953442171100
C         5.82427085180482       5.12199807307002      -1.78310086874101
C         6.62044163676604       1.14579991746898      -2.73778813626625
C         7.05913500341580       4.82751296859837       1.84730957792119
C         4.37306053004167       5.01187514135481      -2.32052906604368
F         8.51050046813631       2.49963880048111      -2.59856658741362
F         6.76904598116233       3.24093656700271      -3.65299935070467
F         5.77484595320966       2.91527758191284       1.58565199015183
F         4.93882801821565       4.75383928032593       0.86938190931690
F         6.58402332292689       5.51838065908845      -2.81878156058433
F         5.83348328187237       6.14526573107501      -0.90482110659511
F         7.24719363079889       0.54874283132463      -3.74952023470214
F         5.31315872758321       1.17957691798013      -3.04791453806590
F         6.74734180209331       0.36466058127161      -1.66904567884009
F         6.48161791335133       5.01588983387614       3.04116343725751
F         8.18015782795761       4.14341788797711       2.04090097854334
F         7.36635171518609       6.01952624361653       1.35291177211692
F         4.00516781446053       6.10749985702748      -2.97682465844459
F         3.49052788110145       4.82815692293199      -1.32419326906121
F         4.23264239191510       3.97372623963184      -3.14979938877262
