31
C9H16F3NO2 optimized with ForceField in AMS.
N         0.84045807715527      -0.00438943716861      -0.04089283523731
C         0.08546073118326       1.22505579226679      -0.42234919189924
C         0.07748661043666      -1.23409018981986      -0.40451860902991
C        -1.34656450287103       1.26166052588899       0.13889484919643
C        -1.35292405781802      -1.25434528097033       0.16252565452837
C        -2.11861607773340       0.00165902905321      -0.24810140387077
C         1.17471564501273       0.00410683869280       1.40720194784196
C         2.11896432444963      -0.01334977957068      -0.79437407454507
H         0.00962791387220       1.30237263701949      -1.53194189079864
H         0.62287151993319       2.13774581937119      -0.07674092781638
H         0.61090567210404      -2.14562291641118      -0.04996090063805
H        -0.00229894297822      -1.32411084631567      -1.51299817737065
H        -1.87418762668859       2.14760623697301      -0.27591456211742
H        -1.33212568400276       1.38139492341530       1.24120409598670
H        -1.33879470750644      -1.35178681730903       1.26815112714862
H        -1.88534345153371      -2.14546671895300      -0.23480935771088
H        -3.11189470982049       0.00847190204833       0.25043586586117
H        -2.28433140735331      -0.00818404429144      -1.34820420348776
H         0.27285148482418       0.00963837747841       2.04881122030781
H         1.76855776307682      -0.89518172794125       1.68534760084841
H         1.77202348939041       0.90431091766409       1.67433487967900
H         1.94198454479287      -0.01845344856463      -1.89367977688815
H         2.73109530638406       0.88620393755748      -0.55762568203816
H         2.72444615501965      -0.91474064600196      -0.54806934854713
C        -1.74696253476051      -0.91939881303747       5.52915287144049
O        -2.01938565569569      -0.63495322440214       6.68481448165895
O        -0.73434897365427      -1.55640627802131       5.28689746442838
C        -2.64499546729187      -0.49014742056596       4.40841030256056
F        -1.93902369947270       0.31748460735760       3.53866732311249
F        -3.72997099846250       0.21662192739670       4.89694664540654
F        -3.10081343789147      -1.60422199713890       3.72807618258966
