22
C6H8F6NP optimized with DFTB in AMS.
N         0.57580336560380       0.67086115004735      -0.12344367921648
C         1.01795926935672       1.51144444974353       0.82366622600742
C         1.12646053995114      -0.54086601312476      -0.28997775290175
C        -0.38429904221239       1.15687699555486      -1.11117979464912
C         2.00620429333930       1.11748540406533       1.70119809669852
C         2.11849657073381      -0.98042510403377       0.56146191102278
C         2.56832953637165      -0.14568465280012       1.57558797073334
H         0.57593139631125       2.49907030949932       0.84965852410532
H         0.76722346030378      -1.13339352081806      -1.12142762187890
H        -0.95197269251017       0.31911315625764      -1.51020140017418
H        -1.05042608952507       1.88080122157814      -0.64670168507080
H         0.18811339623232       1.63331609190361      -1.90925963941203
H         2.35565088475265       1.81367182153381       2.45248178032532
H         2.55692958523788      -1.95715957091815       0.40392869826832
H         3.36269038179551      -0.46400853141339       2.23898586400582
P         3.25109374412467       1.85937535622733      -2.07656333820939
F         2.05456769267376       2.66352220358620      -1.19040728144006
F         3.71997667031288       1.11688043032058      -0.66438874901777
F         2.15124044369928       0.59599486937950      -2.31127733173161
F         4.37300510830545       1.02787552739681      -2.90830394214870
F         2.68772141165176       2.56816706451469      -3.43322311499327
F         4.27694127129005       3.08799099239952      -1.79327559362278
