45
C13H18F6N2O4S2 optimized with DFTB in AMS.
N         1.85371128915458       0.98198987049199      -0.75106028614669
C        -1.88068058621010       0.20257814852394      -0.63230254087841
C        -0.45817387055362       0.38154857361473      -0.09318576885860
C        -2.87620885081459      -0.02123163944154       0.50946659469683
C         0.47770084433029       0.79445026550760      -1.23154520387706
C        -4.30858550766412      -0.10368220495498      -0.02615143094936
C        -5.31268678144410      -0.30623599097698       1.10691758872245
C         2.84363814697759       0.21461008704902      -1.23224312514974
C         2.10684059824009       1.96319918947629       0.12845654171458
C         4.14707587155958       0.41748187646979      -0.83106672954531
C         3.39552336274208       2.20817534025087       0.55864698821095
C         4.43689031426589       1.43166431595170       0.07469032229349
H        -1.90870817143615      -0.64176831681156      -1.32944397168306
H        -2.16716192883878       1.10385503415220      -1.18166878374142
H        -0.46172597625645       1.16275096545792       0.67186795601733
H        -0.09836981820538      -0.54613435900041       0.36287195611437
H        -2.62348659548516      -0.94311533513810       1.04509834064930
H        -2.80205577814260       0.81226420212923       1.21444332313188
H         0.15154316094914       1.75279665955642      -1.64956229268907
H         0.49270722198926       0.03991014274777      -2.02111283409135
H        -4.54593428524039       0.82196358970795      -0.56027820286313
H        -4.38763430118689      -0.93268226189329      -0.73832301617047
H        -5.26198230694808       0.52352978521953       1.81293283374120
H        -6.32450860831828      -0.35846018007361       0.70423637997778
H        -5.10384303764528      -1.23288224223484       1.64420221754904
H         2.57252674786221      -0.55182836568312      -1.94851765943657
H         1.26135389567484       2.56069912895653       0.45420789948358
H         4.93009414564627      -0.20978677200312      -1.23790979792975
H         3.57057074755908       3.02200944677006       1.25071636644934
H         5.45772584647986       1.61385901689278       0.38794934911195
N        -0.20189032513962       3.67244584845323      -0.55664927716921
S        -1.71575561591128       4.15184206106686      -0.26523419680550
S         0.73446620944612       4.58296022067637      -1.48512600308302
C        -2.64225360162287       3.88601269218590      -1.87663130928932
C         1.55752048574101       5.80806844632381      -0.33664647116369
O        -2.25936888533156       3.15092720400623       0.62016367626319
O        -1.87028463086975       5.53930928833053       0.07443593012327
O         0.07759784275439       5.33515091538899      -2.51846611615279
O         1.84746703272986       3.72357547247397      -1.84898648133373
F        -3.81929830128068       3.33754070561442      -1.61233036816259
F        -1.95396533095435       3.03537490406344      -2.63678694228031
F        -2.82601621112574       5.00812715744199      -2.53352558054306
F         2.60139222755326       6.35251989530103      -0.93976314199002
F         2.00330701549552       5.11613150043632       0.72036603706986
F         0.75275890897493       6.75609593332205       0.08322253696286
