26
C6H14BF4N optimized with ForceField in AMS.
N         0.58532739202995      -0.00157647271459      -0.00208462922904
C        -0.30610200616493       1.06969467623654      -0.52524959025199
C        -0.30516440562172      -1.07080726273586       0.52706038844322
C        -1.72298311937710       0.75095905480509      -0.08258737619091
C        -1.72507594966024      -0.74500001978913       0.09984783922516
C         1.45203247232988       0.52884237645952       1.07703879287220
C         1.44347667255776      -0.53362522711790      -1.08712123363595
H        -0.30024655994623       1.10971055588513      -1.64016042005528
H        -0.01880909545295       2.08725509367784      -0.17172944902363
H        -0.28766499712208      -1.11479305990630       1.64169938425062
H        -0.02641038142979      -2.08847418384660       0.16700221327089
H        -2.47433149626478       1.07141476993947      -0.83705331738925
H        -1.93468763888640       1.24814353019163       0.88982294070616
H        -2.46954864592259      -1.06229212836151       0.86236065624634
H        -1.94843490117462      -1.24038403274391      -0.87084315940392
H         2.13935626274273       1.31297532579342       0.68713802262396
H         0.84096257075858       0.98318557591141       1.88893193551275
H         2.06964674469231      -0.28246411737923       1.52364566629738
H         0.82585631427344      -0.98678252939054      -1.89471577581981
H         2.05934732389646       0.27663853662256      -1.53807152662464
H         2.13199226852298      -1.31898506622995      -0.70195159613097
B        -3.46819518569245      -4.48466013883929      -0.61491432976570
F        -3.95565209191958      -3.17487760361348      -0.36608375167456
F        -2.49283032465781      -4.43973924753383      -1.64602942369118
F        -4.54418540188865      -5.31976247558053      -1.01662379378140
F        -2.88159724132216      -5.00460017723997       0.56913033921955
