49
C13H16F18NP optimized with ForceField in AMS.
N         0.16656730568560       0.29606798873325      -0.03636784594748
C        -0.37716530386517      -1.00354993760036      -0.48876300723958
C        -0.94704560782544       0.88829832809680       0.73913498349463
C        -1.87614986211392      -0.81999222546448      -0.70150701406300
C        -2.24793637312443       0.42025777487675       0.09601056364057
C         1.36645847714368       0.13508457509863       0.83780493038295
C         0.47287461072488       1.16875949266490      -1.20159717601911
C         2.56969730276366      -0.52349489033319       0.14365220936482
H        -0.23653818122212      -1.78450095884071       0.29466322416205
H         0.11343640988971      -1.37116975671945      -1.41784037724991
H        -0.89368100931217       2.00045284566826       0.77950788182796
H        -0.94385051476623       0.52050947936151       1.79223911239140
H        -2.44077554109361      -1.71013859933753      -0.34762367136191
H        -2.09035586963118      -0.65795532500222      -1.78067571441959
H        -2.64201556767946       1.20826550051501      -0.58284895751886
H        -3.01511834592527       0.18956692075665       0.86713432488365
H         1.69022470677654       1.12775820603681       1.22539180115791
H         1.11765647135118      -0.48607525175785       1.72848255684074
H         1.17632652723634       0.67659258373758      -1.90585768703363
H        -0.44403025328115       1.40904296452007      -1.78414454888243
H         0.92523189015148       2.12946497071198      -0.86973236147083
H         3.37217798524592      -0.69431571048704       0.89186327755080
H         2.29443652014100      -1.50528008052299      -0.29301927820810
H         2.98735835210923       0.13476032112150      -0.64517773018061
P        -0.58032689110814       0.85879308878126      -7.18368849756049
F        -2.21347664232256       1.24514550324985      -7.57593207734241
F        -0.33410177058664      -0.73788359088447      -7.78026718624862
F        -0.95711769028277       2.49837097418680      -6.82379827170301
C        -0.34132414791342       1.08050917250044      -9.08918484183495
C        -1.59715381389343      -0.11774847478780      -5.85397714417996
C         1.02569902613758       1.23507828792216      -6.20602218075612
C        -0.51921869858767       2.51497280805490      -9.63228579236897
C        -0.83858933739204      -1.16051074816048      -4.98689523176199
C         1.96571737761203       2.32349415892828      -6.75396494199907
F        -1.27196837806646       0.29763607846083      -9.76450265064170
F         0.91347341783475       0.62689221781539      -9.46224220663560
F        -2.63412885411378      -0.81175228764597      -6.46975472596558
F        -2.16455835294792       0.80152969328124      -4.98568681381345
F         1.75565839190592       0.06347178056713      -6.11245149478827
F         0.67873767014389       1.63608085623064      -4.92723309966115
F        -0.30613994476196       2.50501246132866     -10.99968135945410
F         0.38061180429661       3.39222672347153      -9.07063227762564
F        -1.80226728127789       2.97838855462378      -9.40504968310146
F        -1.76772570492639      -1.91571551300901      -4.29266479981396
F        -0.07923922201396      -2.03024050211070      -5.74594594943343
F        -0.02624333901594      -0.55604905150232      -4.05114051284481
F         2.39213605039334       2.03545746401829      -8.03258875113337
F         3.08667620012449       2.38523638537373      -5.94469066250695
F         1.36166769798330       3.56663946017196      -6.72211401522739
