38
C8H20F2N2O4S2 optimized with DFTB in AMS.
N         0.53527121543973      -0.00941184971630       0.02690999123937
C        -0.67270774234285      -0.07675755102192       0.92350596932987
C         0.18311433991532       0.54994600129652      -1.32892479518406
C         1.07248996487001      -1.40685892735193      -0.16173036893792
C         1.55263260448206       0.89194879548605       0.68551635926879
C        -1.88875303834177      -0.78154542543048       0.34016544260742
C        -0.35204213912259       1.97204784455593      -1.31970298134578
C         2.36909699917418      -1.50941764387068      -0.95115406725782
C         2.17406546692847       0.34976753164215       1.96161372911349
H        -0.35948886801367      -0.59109207257142       1.83451791836107
H        -0.93760002652655       0.95032884172963       1.18431511603000
H         1.09107731897334       0.52256285377564      -1.92965509258853
H        -0.54342335161876      -0.13209542674496      -1.77583494638500
H         1.20708192428632      -1.83130582530736       0.83594779571981
H         0.29237761355641      -1.97534448973459      -0.67316982901713
H         2.33484368578085       1.08653414465977      -0.04680049516895
H         1.04291831953753       1.83327408740718       0.89856179966661
H        -2.64916950391157      -0.81604488349257       1.12056973521129
H        -2.30217972217285      -0.24210970685605      -0.50973433947798
H        -1.66581913167546      -1.80342745730139       0.03933971464214
H        -0.66109136275732       2.20413291401927      -2.33893173481692
H        -1.21244096584574       2.09286932811729      -0.66322470936160
H         0.42432218135117       2.68112463742020      -1.03849257687412
H         2.66951871194905      -2.55723845400614      -0.93994550528189
H         2.24082668187589      -1.20428619514685      -1.98717316543268
H         3.16800006827433      -0.92076870033092      -0.50815866699882
H         2.83750924695357       1.12694300466935       2.34043050770045
H         1.43141363824200       0.12425813308943       2.72592366807512
H         2.77789804372423      -0.53517481503960       1.77332017671662
N         4.66194354259907       0.62593780233848      -2.20163647118464
S         3.44968597714327       1.50055782844158      -2.71501665458412
S         5.47764098449839       1.18019708907315      -0.95170064929594
F         4.11165698341860       2.55888065999822      -3.72961381127296
F         4.45581152012081       0.76360988947626       0.29661596052822
O         2.63520036405851       0.66512990939950      -3.55085131378971
O         2.75842264967314       2.31859931359468      -1.75105592520140
O         5.61059659008051       2.58987361268165      -0.81232270328069
O         6.59728193192240       0.32991312185124      -0.74370204637163
