48
C12H26F2N2O4S2 optimized with ADF in AMS.
N         0.02731644840610       0.17331292031332      -0.29864190543731
C        -0.22567344832829      -0.61155031106544      -1.57692030435966
C        -1.28709531659603       0.72834219223250       0.21030366098144
C         0.65160791400610      -0.71100031804477       0.76796874992215
C         0.95550820084296       1.32282006267765      -0.66907611901981
C        -1.28720074917449      -1.68382545196422      -1.42589230530293
C        -2.36560134641655      -0.33128012978414       0.38617956885238
C        -2.60285035052302      -1.10274213509787      -0.91165871518589
C         2.04683892808900      -1.22155902938053       0.45871043565171
C         1.41941640959252       2.19747707934359       0.48126747741687
C         2.47644551458439      -2.23591364953735       1.52283466298273
C         2.34982448468580       3.28114705543991      -0.06999796359818
C         3.91086743475850      -2.70874173364125       1.30077408500865
H         0.73391061291706      -1.02787915581930      -1.89129185355210
H        -0.51945070172518       0.13190959434143      -2.33357964170890
H        -1.60392288092873       1.47244927596709      -0.53877080483849
H        -1.07270882335280       1.25002987427072       1.15237671472045
H        -0.03670227677966      -1.55332047441040       0.91308393955738
H         0.64606476436718      -0.11602276766057       1.69413475104894
H         0.39303496276925       1.91890958238804      -1.40576831202084
H         1.80699598633916       0.87421491240029      -1.20454732559990
H        -0.93328913825004      -2.49350224721933      -0.76509167553712
H        -1.41400799754721      -2.13897516045807      -2.42171199090627
H        -3.28212527819485       0.18984541109845       0.70862487304101
H        -2.09939589709751      -1.02142789677459       1.20429591753250
H        -3.01874017158764      -0.41645150761495      -1.67179361144686
H        -3.34767388681616      -1.89799964928563      -0.75512051509546
H         2.77276356300811      -0.39410317439160       0.42894914784500
H         2.08373607981570      -1.70943678768146      -0.52828011974533
H         0.56502743362861       2.66702595332112       0.99882321896692
H         1.97335920767896       1.59917276065980       1.22268153263693
H         1.78685519884899      -3.10036750888544       1.49973845878867
H         2.38051269031315      -1.78354650374436       2.52771960690931
H         2.69650214866676       3.93908191303902       0.73986113505403
H         3.22837156774519       2.82095533451818      -0.54575698146194
H         1.83345059959474       3.90345944992690      -0.81723628814261
H         4.61467309576553      -1.86534726539592       1.36979096485797
H         4.03082894777637      -3.14526772471233       0.29794539592061
H         4.19866788655330      -3.46321620185296       2.04823568164318
N         3.09867919221068      -0.02943090937375      -2.73082802481257
S         2.63178669202795      -1.01505200633332      -3.91256264697887
S         4.55404177098073      -0.17877340776049      -2.04937346782585
F         2.24779313386671      -2.41336206537200      -3.05082842251256
F         5.56076881799701       0.50758525062936      -3.14707303675218
O         1.32624492474843      -0.55309858737937      -4.35489054103139
O         3.64311339268639      -1.44523058718826      -4.85124686335737
O         5.04556285351315      -1.53191390824512      -1.88511255754601
O         4.56438367073370       0.74342044310744      -0.92174991186244
