46
C14H29NO2 optimized with ForceField in AMS.
N        -0.70850097508729       0.30410998931599      -0.15165612240802
C        -1.27158060810275      -0.45758878993183      -1.31443652498997
C        -1.83809066175559       0.71046626366609       0.74823570184267
C         0.28473497081687      -0.51555477758491       0.62861307557686
C        -0.07803779165037       1.54634293306478      -0.71936303380312
C        -2.12946542004179      -1.67041967589021      -0.91607977805279
C        -2.73834430935749      -0.45957460166838       1.19530103726471
C        -3.27169613632152      -1.23876124465747      -0.00259332412237
C         1.56545316621895      -0.92828356602881      -0.13768866201117
C         0.64644527641446       2.46030445784034       0.30006332754115
C         2.50564293547074      -1.73174747865828       0.77078314186318
C         1.21197274072603       3.70047591876749      -0.38857843395326
C         3.77173389304279      -2.14503845491115       0.02602495183391
H        -0.47361298964928      -0.79594503384307      -2.00702861336391
H        -1.92309815311811       0.20871518119861      -1.92753120312806
H        -2.49131477881384       1.45778485421166       0.24115447928670
H        -1.45750602761923       1.19476172815570       1.67300676944975
H        -0.17921838527647      -1.44850204253669       1.00330819912636
H         0.58810141622395       0.02755000620423       1.55062045382110
H        -0.85405317993464       2.16571830247094      -1.22685368431680
H         0.64267152767842       1.28288711580310      -1.52556185075625
H        -1.51614014199945      -2.45632846367366      -0.42942778748047
H        -2.56045712244869      -2.12364234998536      -1.83495919413583
H        -3.60008346911214      -0.05233071013799       1.76730975925540
H        -2.19404228422136      -1.14031263203025       1.88239219547315
H        -3.98323598397074      -0.60101135624606      -0.57235711092550
H        -3.82256866714810      -2.13604274509250       0.35286510213299
H         2.11669312090346      -0.03480177502246      -0.49438149904175
H         1.30720111838470      -1.56379867792630      -1.00872855398940
H        -0.05150935516607       2.80364585664081       1.08974130670444
H         1.49438684363478       1.92973374885143       0.77845927341984
H         1.98849221659033      -2.64713150799773       1.13309504645468
H         2.79322683892833      -1.11703892588002       1.65173267600624
H         1.73241254320454       4.33628695272674       0.35877984666290
H         1.94115630560884       3.40835955502725      -1.17429167232318
H         0.39387061941217       4.29432727457651      -0.84939373828485
H         4.31681066927287      -1.24640379331655      -0.33032480121072
H         3.51641617400352      -2.78652984110659      -0.84430303162427
H         4.43551584507099      -2.71691594453270       0.70814486522725
C         7.40689106760516       0.12540025025918      -0.60211370836117
C         8.03844282250132      -0.05001839088673       0.74279422501917
O         9.25377989706357      -0.09699795641781       0.84349509048281
O         7.34354411357810      -0.14592214144403       1.74157741877126
H         7.75251033033895       1.07784115067688      -1.05577928101087
H         7.69353658024347      -0.71981490286369      -1.26266552609578
H         6.30057096335763       0.15410178041349      -0.51414383052703
