64
C18H26F18NP optimized with DFTB in AMS.
N         1.07567886589107       0.10527791450937       0.15030613255189
C        -0.11422442020958      -0.78825805927576      -0.03155755866511
C         1.29807298946960       0.29083951051452       1.62877781583042
C         2.31244019172281      -0.46078012140214      -0.49538258087496
C         0.72508649376480       1.44353015552534      -0.45005695621706
C         0.06209800749200      -2.14078848209387       0.64956254271799
C         1.47940053265741      -1.02161788777153       2.37870995921321
C         0.29875519529744      -1.96087749967810       2.14840083363108
C         2.17667158438503      -0.80720262089333      -1.97404515662661
C         1.85572032489042       2.47365729168513      -0.45373847190535
C         3.55895354216134      -1.21459355884800      -2.50633998735271
C         1.29502852931585       3.83985672368855      -0.84626032944473
C         3.47683221479858      -1.68490448068460      -3.95569659169598
H        -0.28566584989194      -0.90966192246594      -1.10254617002615
H        -0.97216194122564      -0.26396915532264       0.39965931950410
H         0.42318560009108       0.82469816146043       2.01097334552381
H         2.18000047041315       0.91506091935909       1.75753782024353
H         2.60222619684218      -1.35033968647619       0.06287538521295
H         3.09311761103961       0.28393681949320      -0.35946048075934
H        -0.12398618533004       1.82534900234549       0.12427988429494
H         0.38594523444200       1.25951002005589      -1.47273233510029
H         0.89001432088790      -2.69221144102759       0.19748590518409
H        -0.85245342425330      -2.71550592337722       0.48074412732348
H         1.55878661755959      -0.77527688405744       3.44045665461114
H         2.41373606582597      -1.50423281467777       2.08679212407722
H        -0.60263111990115      -1.54613075741013       2.61203658955262
H         0.50233275872819      -2.93066844799361       2.60758061543488
H         1.80835193877468       0.04877596587145      -2.54606783330502
H         1.47801994891691      -1.63732322893066      -2.11475274092660
H         2.32003959466462       2.54886735631497       0.53074864249602
H         2.62716153031622       2.18852048916360      -1.17149115897762
H         3.96427294769316      -2.01644711583659      -1.88197721276915
H         4.23762903663453      -0.36032419677016      -2.43651090385043
H         2.10553656114866       4.56685091435730      -0.86623525603988
H         0.83686269372085       3.79985186251811      -1.83510004300555
H         0.54528764436071       4.17176435890615      -0.12712278688835
H         3.10205242435241      -0.88825802076436      -4.59974987454455
H         2.81252633975029      -2.54599570685768      -4.04440288474395
H         4.46840927045010      -1.97415453599863      -4.30280561044248
P         5.71358537739469       0.75221455664793       1.89617598701484
F         5.35530968597453       0.52356762130911       3.51266741886334
F         4.16157728584978       0.11248808291769       1.50581896827501
F         7.22842788298261       1.37739645086366       2.20978630428605
C         4.90217586419093       2.53076787756457       2.17955409934101
C         6.47569605199993      -1.05871084468909       1.95879299904810
C         5.94039440438298       0.95439436301546      -0.09722809100157
C         5.55936040001503       3.47759016352821       3.22497062016046
C         5.49953499083152      -2.25973768737302       1.82721025444361
C         7.15628102783456       1.71620869843835      -0.67857380822449
F         3.62176575518537       2.34659760142849       2.58880944401337
F         4.82722092214179       3.26919612105501       1.05438094042339
F         7.07815959514718      -1.21165110967232       3.14915379750563
F         7.43207201668621      -1.21399907994002       1.02717471196107
F         4.83517566821138       1.55018687582895      -0.62279570318231
F         5.95126043582140      -0.27764550213646      -0.65086984608302
F         4.74803333321241       4.52221784001587       3.43347161730752
F         6.71370711806743       3.94856138078179       2.76706022114551
F         5.77282583532461       2.89568992748526       4.39616280754373
F         4.57631381313166      -2.23063254395717       2.79132866597427
F         4.84773609777106      -2.26685527324126       0.65637260953060
F         6.15023358096849      -3.41636604708734       1.92448051582569
F         7.05535331268740       1.80066989197038      -2.00933584609095
F         8.29265991128735       1.09391527911106      -0.39312399975604
F         7.21641741155231       2.95279502598014      -0.19309169936631
