29
C9H13F3N2O2 optimized with DFTB in AMS.
N         0.90502298362639       0.79485738683326      -0.21648731123484
N        -1.23280339227063       0.56796068570365      -0.14920259008970
C        -0.13240726689274       0.18332804046396      -0.78570322283432
C         2.27821862583422       0.72121327545706      -0.70852042864687
C        -2.59569116236931       0.21370540552451      -0.53629196722146
C         0.45522830378922       1.58918619098094       0.80169147225354
C        -0.89599663960907       1.44902725890661       0.84242045291196
C         2.89131752943651      -0.63331152025883      -0.37681008124572
C        -3.21806964328611      -0.71281688699859       0.49890819202775
H        -0.09248146491287      -0.46863188881046      -1.64080960097633
H         2.24298530984371       0.88523892447100      -1.78947221191503
H         2.84227534961361       1.53034362653886      -0.23977239488441
H        -3.15887068324449       1.14558610237590      -0.63217770357201
H        -2.54202171600236      -0.26533917009693      -1.51624032366445
H         1.11955647237181       2.19172852117677       1.39603163202940
H        -1.63577797987965       1.90487906081372       1.47652327271008
H         2.91192296526453      -0.79034772965530       0.70141770234558
H         3.91048332027887      -0.66656990942686      -0.75879122231901
H         2.31681326381157      -1.43549898550719      -0.83869466277645
H        -2.63031954451855      -1.62569037709564       0.59377883894297
H        -4.22654388101337      -0.97436721899853       0.18219990071643
H        -3.27064583354337      -0.22523431861130       1.47204399652513
C        -1.07771799062584       2.54408440252627      -4.82175784688406
O        -2.24794387664241       2.69664402656035      -5.04368810021055
O         0.00130334199391       2.77506141531772      -5.29528302340914
C        -0.87856330941154       1.69562977282530      -3.27939923104349
F        -1.35992969865259       0.40957344505966      -3.27272462234984
F        -1.50088428122463       2.28973495368953      -2.21990571637016
F         0.42345409353518       1.55588153093456      -2.87047124041505
