34
C10H16F6NP optimized with DFTB in AMS.
N         0.02120138869628      -0.58038141247708      -0.77284116698249
C        -1.86908395052777       0.90895485025046      -0.25558052952040
C        -2.61233125668390       2.16912923108294      -0.70594734758194
C        -0.69218494085429       0.63051610183820      -1.19735027262426
C        -3.69512204480924       2.58961104213604       0.29600235852518
C        -4.82513070207224       1.56963833770449       0.42138293244845
C        -0.18523667736692      -1.73644401129316      -1.41902540500150
C         0.78594482203053      -0.52994790819095       0.33171813700656
C         0.41672494652314      -2.90053043718351      -0.98110124964164
C         1.40717432917374      -1.66330514680628       0.80635122917025
C         1.22047663256168      -2.87287090864266       0.14701003116632
H        -2.54078267076683       0.04955706976186      -0.26385572971682
H        -1.49224791296627       1.03282126197692       0.76332077457056
H        -3.06771658445781       1.99029971750912      -1.68600032127088
H        -1.89641581705022       2.99213743257129      -0.81574452203455
H        -1.04441478988774       0.47504518538429      -2.21971005711541
H         0.01911133016813       1.46195239414095      -1.18853456721355
H        -4.10843994727421       3.54725365267346      -0.03844937189503
H        -3.23606544952084       2.75061940258506       1.27736314435258
H        -5.23639300658680       1.32687590410591      -0.55939246067764
H        -5.62236937946003       1.98613700634071       1.03762243670582
H        -4.47519683483813       0.65126726843810       0.88974612959296
H        -0.83357001969323      -1.71065683441527      -2.28424014184395
H         0.88030104217003       0.43200909696107       0.81997077488144
H         0.21574598853615      -3.82538310079726      -1.50493933412085
H         2.01083502814183      -1.60098056809019       1.70242797300095
H         1.67641406245580      -3.78072163767772       0.52152611360587
P        -2.66809701440300      -2.67766865094793       0.90601146385999
F        -1.46674855215219      -1.58227784952774       1.32430218733604
F        -1.49127906557413      -3.81873040185415       0.65391511436951
F        -2.80899928133305      -3.12263826917829       2.46227454485151
F        -3.81690076206497      -3.72688550086484       0.43589765630511
F        -3.78298799841359      -1.48378742637506       1.09655385329994
F        -2.47247723189992      -2.18811709783877      -0.70259941240817
