43
C13H24F3NO2 optimized with DFTB in AMS.
N        -0.18189698220821       0.27150625554539      -0.46525761687072
C        -0.94014384504930       1.39968080039272       0.18191467518825
C        -0.99517622048416      -0.23686919728401      -1.62546276321661
C         0.08638036098650      -0.79832399920601       0.55070559110898
C         1.09873701798009       0.81447958270946      -1.04961866038228
C        -2.34397699738426       1.00232552583889       0.62095685854885
C        -2.39623372215465      -0.68065788381630      -1.23060099394663
C        -3.15242874764395       0.46130404209333      -0.55567146714449
C         0.92544050711088      -1.97380821362238       0.05083045195020
C         2.11184591424927       1.33589480717445      -0.03412939244767
C         1.07142577732440      -3.00208289189122       1.17259435618528
C         3.28857184753361       1.95748642927685      -0.78773632130853
H        -0.35929366700740       1.74358087281960       1.03966526899413
H        -0.99979557705494       2.19787186550839      -0.56367122566970
H        -1.06345359622529       0.59645319823125      -2.33038652538746
H        -0.44154045662039      -1.05358155612435      -2.09130924184409
H         0.58370744517530      -0.31933566426469       1.39776108954264
H        -0.87937638708586      -1.17149151408046       0.89546539933559
H         1.54313111775667       0.01581380660264      -1.64791489648293
H         0.80751789533640       1.62517314309459      -1.72367352854862
H        -2.30919026762136       0.26953679116562       1.43347618936139
H        -2.82262811277909       1.90425453379379       1.01156502460714
H        -2.91062973338050      -0.96074585783565      -2.15341126030244
H        -2.36538186695877      -1.56219250331254      -0.58230332973758
H        -4.12457272498692       0.10687461316447      -0.20522719593629
H        -3.31880301625790       1.26190535707920      -1.28022588849699
H         0.44560675134229      -2.44823476818733      -0.80848616382388
H         1.91850969550057      -1.63779181525829      -0.25602586944915
H         1.65869255861795       2.09749996358599       0.60518322778339
H         2.48059052846053       0.52879716802518       0.60556048623013
H         1.67256090782790      -3.84106468455822       0.82425690719705
H         0.09441987622453      -3.37695522194688       1.47909669861607
H         1.56248901402796      -2.55742073695325       2.03875405362231
H         4.01929688850025       2.34081197540291      -0.07641715676309
H         2.94576747591184       2.78003315112712      -1.41514623150780
H         3.77355464599784       1.21369158614865      -1.42067137499543
C        -1.27129326667909       3.18492370626497      -3.53144046849730
O        -0.71888511852559       2.63701326748022      -2.56130091581942
O        -0.91774779502219       4.02534200565436      -4.32315916194006
C        -2.78447720278323       2.60018285951935      -3.73193993770601
F        -3.59336614196677       2.96499339595282      -2.70681908833919
F        -2.77206482455062       1.23484344305793      -3.70545555480975
F        -3.40007997743437       2.95378873733142      -4.86065810469727
