25
C7H16ClN optimized with DFTB in AMS.
N         0.82862026854918       0.03790714588857       0.09079213318757
C         0.06063367748269       1.17934201559485      -0.49357929620356
C         0.10828531490812      -1.25497505779623      -0.16166217395509
C        -1.37486903037569       1.24427940798188       0.01869278776721
C        -1.31650848785639      -1.23456074249952       0.36766805698094
C        -2.10637134496205      -0.07369132462401      -0.23597625537102
C         1.07146882821149       0.23561519538303       1.54743935180327
C         2.15857715218973      -0.03952048751957      -0.58212581668187
H         0.06376715218050       1.04435544250195      -1.57893865398030
H         0.60085246130082       2.09757788816427      -0.24998094409895
H         0.70499763393779      -2.04025381181115       0.31939640868661
H         0.10720902849108      -1.41031627457572      -1.24374688119764
H        -1.87786086386174       2.05877724193707      -0.50899776874361
H        -1.38815610579878       1.48185625138753       1.08562226234335
H        -1.32143846994931      -1.16810777448525       1.45831441182473
H        -1.78362932332120      -2.18287056834245       0.09126741578291
H        -3.10348553042818      -0.02979412374359       0.20834079217090
H        -2.21988819373985      -0.22666634836307      -1.31405482511256
H         0.12658084650709       0.33840626298315       2.07270799862461
H         1.61177198638449      -0.64443504428949       1.90822323753138
H         1.67061442837715       1.13382160079281       1.68197276869612
H         2.00872906956705      -0.19748374119571      -1.64807953248179
H         2.69289846028009       0.89316169986314      -0.41275531667639
H         2.70199623578299      -0.88065904810103      -0.14235609737104
Cl        2.61791768054291      -2.56698519353146       1.34853292457425
