58
C16H36BF4N optimized with ForceField in AMS.
N        -0.00057669081439      -0.00078903041426       0.00262742769234
C         0.84087668416958      -1.03473627029483       0.70415324176434
C        -0.87789817377801       0.67487774236050       1.02382270187988
C        -0.82052674006293      -0.68848624023901      -1.05708905810014
C         0.85602106270017       1.04543968417717      -0.66184461940097
C         1.88836067976912      -0.49034514998379       1.71087740189867
C        -1.94141123790263       1.65615424226283       0.46573436313217
C        -1.89555273388110      -1.68590003449021      -0.55236619258683
C         1.94592327628660       0.51716181623297      -1.63134810313707
C         2.66188009648279      -1.64399476141584       2.36367628147649
C        -2.75224135518921       2.28147940074282       1.60910168041807
C        -2.63479922066904      -2.31706131948740      -1.74119900268871
C         2.73587486325078       1.68182629110969      -2.24346970529324
C         3.69269678171474      -1.12681158343818       3.36362660164783
C        -3.79530019106822       3.26162181028754       1.07915659145822
C        -3.70035523814391      -3.30561336055152      -1.27941123213271
C         3.80117239818861       1.18083367408557      -3.21504365386867
H         1.36916944418728      -1.67516394759210      -0.03681369423939
H         0.19027068502410      -1.72506605521458       1.28168196149520
H        -0.25501554512472       1.26832172043433       1.72586121845715
H        -1.39720254123412      -0.08220466673351       1.65284709479397
H        -0.15756726889314      -1.27277503215606      -1.72924176697901
H        -1.31979737614612       0.06164641023104      -1.71011729457529
H         1.34718614907311       1.68943524728849       0.10120826245516
H         0.22132075096047       1.73011794095343      -1.26289247793077
H         1.39240975179771       0.08379136355452       2.51860535692453
H         2.61917408494022       0.17165190676469       1.20541815201779
H        -2.64601711602667       1.13543400335089      -0.21250538944269
H        -1.45615074043607       2.48036624424602      -0.09397484514098
H        -2.64112245389128      -1.17786737279787       0.09115846715625
H        -1.42649189428496      -2.50417002454119       0.03000692622171
H         1.48515255236822      -0.05111044791988      -2.46376691471720
H         2.66049015047704      -0.14587334759626      -1.10468189609812
H         3.18639582521644      -2.23524037605754       1.58206484674528
H         1.95438618631065      -2.31592700632715       2.89698249180082
H        -2.07082629354881       2.82570274831135       2.29913847884823
H        -3.26977096519775       1.48320575129726       2.18405729132609
H        -1.90966259795694      -2.85443415530664      -2.39056266995328
H        -3.12428868631702      -1.52214266885698      -2.34470688190774
H         3.23132999070698       2.26515463131040      -1.43741074728569
H         2.04388520714015       2.35777395108763      -2.79196188515340
H         3.19361386553765      -0.54703195338431       4.16905116694353
H         4.43621570630124      -0.47931558470338       2.85211342471075
H         4.22663734849221      -1.98395751700636       3.82425504708402
H        -4.51266360289921       2.73864353826465       0.41169432574496
H        -3.30312593841713       4.08364601235843       0.51701298065941
H        -4.35763006098251       3.70192320388388       1.92878040765581
H        -4.47589997144665      -2.78053229473684      -0.68333131377783
H        -3.24287636895931      -4.11173197674766      -0.66708091218029
H        -4.18753900707269      -3.76755080368433      -2.16315767632494
H         3.33099410704150       0.61050246084808      -4.04430360052214
H         4.52903866154292       0.52847203276156      -2.68751506873068
H         4.34736815825835       2.04545789231017      -3.64632400487550
B        -5.17413239445398      -3.99187126644495       2.28452401466587
F        -4.91615221525010      -5.13654376130385       3.08395240953958
F        -3.94634171054749      -3.35598917915138       1.96073757791027
F        -5.99862923264706      -3.08689863214439       3.00379427716866
F        -5.83603265249546      -4.38865780699368       1.09213378805020
