41
C11H22F3NO3S optimized with ADF in AMS.
N        -1.05590821506258       0.28477234974297       0.27317322759570
C        -1.32855257523822      -1.17826384394425      -0.02748588251133
C        -2.01941540019487       0.55269704098279       1.42300076779486
C         0.36855356070415       0.52712505755586       0.72446127569358
C        -2.84418364816856      -1.30910569169284       0.05180507860113
C        -3.28569598594753      -0.23697684218509       1.08172059514189
C        -1.41249570383995       1.13760998254511      -0.89745707562930
C         1.42826119228258       0.20055725157259      -0.31414322915956
C         2.82518771608818       0.34136719940660       0.29939121811931
C         3.93609476173658       0.02248547685377      -0.69999100049483
C         5.33192347066483       0.14358416015580      -0.09361793571575
H        -0.86418392184031      -1.74731256972850       0.79220825015890
H        -0.88796398045995      -1.43820613445736      -0.99827885291369
H        -2.15146516161974       1.63959609095032       1.51730459213975
H        -1.52440395562061       0.14415008747659       2.31768055876544
H         0.48937980954232      -0.09107902572766       1.62928732754177
H         0.41531775867113       1.58962288513821       1.01535109662218
H        -3.09611532523590      -2.32136212908577       0.39594731564182
H        -3.31686448718078      -1.14358057568854      -0.92918584252384
H        -4.07803477875240       0.40818664416377       0.67334591247163
H        -3.65663470157978      -0.71116631485465       2.00005223560779
H        -0.81463753219149       0.83672834696001      -1.76523722006844
H        -2.47813863540439       1.01031877278748      -1.11991656530097
H        -1.20924077444296       2.18579985005277      -0.64241780057678
H         1.30391722228153      -0.83610506396544      -0.67003571039089
H         1.35279645316784       0.86597392807740      -1.19226352503598
H         2.90424391319282      -0.33206564544790       1.17176419532511
H         2.95975033147570       1.36939626797457       0.68397712987919
H         3.84816991742176       0.70041366628713      -1.56924680480874
H         3.78856363624873      -1.00236353913277      -1.08656184747227
H         5.51634389620305       1.16502803370631       0.27498084510152
H         6.11090581606869      -0.09258919923775      -0.83489109254740
H         5.45412488331013      -0.54700079574663       0.75565212510594
S        -0.99965936120325      -2.29424812653433       3.72914567610980
O        -1.94994021378448      -2.66115915998071       2.65551026939071
O        -0.13789901541370      -1.13368212671006       3.36801770531522
O        -0.33230920033251      -3.38980779223484       4.42675913633936
C        -2.13059516299508      -1.54967851195716       5.03025643813944
F        -3.06656000831947      -2.44075419862753       5.44507646307553
F        -2.80098486801545      -0.46021207693360       4.52042518578003
F        -1.44205719591605      -1.12548132271666       6.11914720539214
