47
C13H25F6N2P optimized with ADF in AMS.
N         1.73621879511977       2.45510512685786      -0.18101807197001
N        -0.43230993073077       2.29422930410351      -0.22387885559891
C         3.15257848976024       2.24390677776765      -0.52773511425769
C        -1.77564480028473       1.86706308027484      -0.64515021464206
C         3.66417148616868       0.87245752888907      -0.09323133218887
C        -2.12185148147926       0.45945429736656      -0.15890556335131
C         3.01674324224106      -0.29713967078951      -0.82726579535635
C        -2.55323689797765       0.39067299455515       1.30290575135470
C         0.69371754065075       2.00413705959104      -0.89249194406094
C         1.26420351834796       3.02807780888402       0.97832116058245
C        -0.09633973181564       2.92754425458614       0.95172699100378
C         3.57476868722890      -1.64645836047990      -0.37386896390435
C        -2.85689980933998      -1.04035108829067       1.74549037374251
C         2.86886910953649      -2.81860680744052      -1.04914724191467
C        -3.28667545457368      -1.11484513130108       3.20820122500321
H         3.71383869017769       3.05290681398381      -0.03773310258646
H         3.24291029960279       2.38229679021987      -1.61703481694891
H        -1.79396356010402       1.93361904871667      -1.74402508564470
H        -2.48612081885645       2.61104408854260      -0.25381738302179
H         3.50885901562258       0.76037376874269       0.99207092265495
H         4.75429693597472       0.87518881959568      -0.27624025880101
H        -2.93216643438252       0.08064382330732      -0.80775578464144
H        -1.24639681140949      -0.19563347045904      -0.31466435347711
H         3.15048107206814      -0.18268460343124      -1.92215173898802
H         1.93422678830393      -0.30161627351237      -0.61344241481375
H        -3.45257201808960       1.02194705739274       1.44584536155904
H        -1.75558972899948       0.78941407102010       1.95055913837301
H         0.75177182304475       1.48737684888177      -1.84147644558145
H         1.92753478789244       3.39547461213483       1.74980306244834
H        -0.83663579201852       3.20394106546240       1.69079079388194
H         3.44705019145933      -1.72053878282126       0.71865825581999
H         4.66010758954722      -1.68704508272107      -0.58085827193566
H        -3.64106196195523      -1.47137715940621       1.09422712737916
H        -1.94554201840079      -1.64751635452779       1.60775243342167
H         2.97551023484252      -2.77530476820271      -2.14566576630600
H         1.79351114093217      -2.80882367280573      -0.80812296361606
H         3.27704057103256      -3.78191235138362      -0.70753965923275
H        -4.19884717402087      -0.52166338418675       3.38647393222088
H        -2.48517054538314      -0.73030650581491       3.85650205385896
H        -3.49392097395232      -2.15330282691854       3.50865488078014
P         1.14998453118033      -0.03668799666955       3.08303686150934
F         0.76857859444122       0.08236116163723       1.44676238414014
F        -0.00370171442683      -1.19572996013946       3.24717247665541
F         2.28119165466439      -1.17728583684218       2.71408048611449
F         1.52251032073051      -0.12360722357305       4.67105170244540
F         2.30326499875580       1.15863475210546       2.86940631422162
F         0.02050343837402       1.14871585489811       3.39645222726914
