46
C14H26F3NO2 optimized with ForceField in AMS.
N        -1.89051065087562       0.12311672435945      -0.05976014317151
C        -2.09863845119429      -1.09036972697124      -0.90750880487059
C        -3.01347684240232       0.10189927306600       0.92833393648735
C        -0.58495003723368       0.02988713579405       0.67165200775420
C        -3.47744089896109      -1.64600701971940      -0.60905965552113
C        -3.72300407770930      -1.23373397276351       0.81488046191334
C        -1.97967886680931       1.34931246041183      -0.91705879843739
C         0.66910820744352       0.04456111478108      -0.23578208466828
C        -1.75876958144525       2.67313338458855      -0.16520884749964
C         1.93903342522589      -0.17294262431625       0.59740187132132
C         3.19172778611946      -0.19227766730786      -0.28706708130813
C         4.45849743972161      -0.35116434074519       0.56183525481194
C         5.70977509127302      -0.38167189428005      -0.31106942871982
H        -1.36898413870373      -1.89876004016876      -0.67073483330176
H        -2.00048640195422      -0.88782726590716      -1.99895245281401
H        -3.77425265246661       0.88921966508471       0.72048177294777
H        -2.67899539389543       0.26177447883630       1.97942559935165
H        -0.56687939713010      -0.90602570578014       1.27741513186715
H        -0.49219107577441       0.85882077827997       1.40775999307568
H        -3.51619591488488      -2.75080899364543      -0.72747104125621
H        -4.23039462677691      -1.17017909798364      -1.27593848062087
H        -4.80957217152512      -1.14826021948916       1.03462637547993
H        -3.25727536830810      -1.96967106689936       1.50733731811932
H        -1.24865815442403       1.30276395251525      -1.75352107244729
H        -2.98064760662299       1.39761590599840      -1.40464511704954
H         0.60270697889028      -0.75069765322751      -1.00720603074337
H         0.75875762945190       1.02360100005342      -0.75007793427106
H        -1.98366968172158       3.51673159954389      -0.85040416956132
H        -2.42258588730463       2.76269899551040       0.71813161944643
H        -0.70393079413112       2.77893865658579       0.15842371740671
H         1.86380069426224      -1.13953409706852       1.14229403064460
H         2.02843800240874       0.64673224309880       1.34392887147797
H         3.25268641736372       0.75710459825066      -0.86323917392721
H         3.12040640406463      -1.03855280242395      -1.00548892732242
H         4.54014126760108       0.49770927876733       1.27521802122255
H         4.40446031501220      -1.29616069803474       1.14507480172399
H         5.79780448001866       0.56033204562206      -0.89293668543761
H         6.60902019825243      -0.48653497147173       0.33197955334523
H         5.67116483512482      -1.24355844239340      -1.01051840335413
C         0.65060597443788       5.42304850180184      -0.92002330432130
O         1.08056839676408       4.93923006679577      -1.95529803022802
O         1.08727335458148       5.03685402717560       0.15230998737647
C        -0.40594928843494       6.48796926022083      -0.95747825973865
F        -1.51713710423024       6.06455260353133      -0.25212544439906
F        -0.77766826846663       6.75916473031804      -2.26307038482292
F         0.08362026726891       7.64427821890563      -0.37886895536036
