63
C17H36F2N2O4S2 optimized with ADF in AMS.
N         1.10315594055587       1.08819139855713       0.63631303531438
C         0.63832993170094       2.21653974314067      -0.27271280647222
C         1.68893124294063       1.70345667212192       1.90032827873762
C        -0.03499919355886       0.16032788428659       1.00294800694052
C         2.20640777002720       0.34468365389008      -0.10789963672369
C        -0.35228232158535       3.15273066770571       0.39595226093766
C         0.71935405880793       2.63773546998221       2.60689178997534
C         0.23503901543301       3.74720956237293       1.67566819386426
C        -0.62444580131676      -0.63401115024718      -0.15022443650083
C         2.79871960834182      -0.84365888874609       0.62391713151126
C        -1.82444311819519      -1.46023904473445       0.32036882913834
C         3.85581024303009      -1.50801999775518      -0.26285784821810
C        -2.43733335170923      -2.28782427370416      -0.80837575223771
C         4.59257782541943      -2.63325310961172       0.45853655004057
C        -3.64161605737583      -3.11682945698238      -0.36502326740113
C         5.66131154499499      -3.29267001800136      -0.41050039943930
C        -4.24250420578490      -3.93710643104153      -1.50368921581815
C         6.40475425261563      -4.40903810089175       0.31763573881053
H         1.55593699486874       2.75458058664312      -0.55558051001757
H         0.22869232294981       1.74759194094573      -1.17765227974359
H         1.99434467058248       0.86949859832968       2.54539137636165
H         2.59201932344412       2.24242467689145       1.58005277698368
H         0.35801258376081      -0.51408272019147       1.77790220204754
H        -0.81084109481873       0.77979386896110       1.46841014394577
H         1.77048564383818       0.04490465065024      -1.07254779330504
H         2.98418137591679       1.09526128700081      -0.30447882383057
H        -0.57340709995173       3.95087111595503      -0.33203066841992
H        -1.31118888890906       2.64393942910201       0.59963751710134
H        -0.13309567147420       2.07857566286716       3.03037876573366
H         1.26548166754370       3.06553492921113       3.46371281925764
H        -0.50980092130541       4.37922950018135       2.18444723005537
H         1.09255028109533       4.38885926997269       1.41061484812124
H        -0.95453319374233       0.03937549358410      -0.95898710784470
H         0.13052138588422      -1.31253957781665      -0.57940965929857
H         2.02924748872793      -1.58937763887122       0.89079473358603
H         3.29251930040654      -0.50885564154232       1.54959097467211
H        -2.59442655194804      -0.78782293423276       0.74224894259723
H        -1.51162889047963      -2.13279665740324       1.14050204632519
H         4.58346667223764      -0.74334845034514      -0.58377849524842
H         3.37692264729097      -1.90376983675720      -1.17873157983655
H        -2.74164712804166      -1.61428098527422      -1.63165475382034
H        -1.66559856696451      -2.96053142612824      -1.22770653104380
H         5.06815840598838      -2.22252100266390       1.36878220873271
H         3.86875610670263      -3.39972677487080       0.79826825873664
H        -3.33643517877750      -3.78912631136705       0.45755002507095
H        -4.41132133122638      -2.44315755103034       0.05418632011610
H         5.18963539491414      -3.69294291313893      -1.32703078392762
H         6.37767851985010      -2.51929627199322      -0.74112813850276
H        -5.10686431037683      -4.52661702785047      -1.16326173464625
H        -3.50041092123703      -4.63730426729649      -1.92010908714979
H        -4.58226655292719      -3.28429112073892      -2.32390013349231
H         6.90386682418721      -4.02263865572136       1.22093525749665
H         5.71138121999138      -5.20621976785132       0.63273962736533
H         7.17470804596346      -4.86580943104349      -0.32249213608550
N         5.78229822912634       3.66550933584934      -0.08354994185445
S         6.01205437229116       2.16498127121148       0.43880081747938
S         4.34120308477120       4.14793295103184      -0.56076258473776
F         6.05140656550152       1.28180951914092      -0.97015761797467
F         3.51552138760836       4.37211472383912       0.89637282175548
O         7.35051976228126       2.05794100700260       0.96935930736864
O         4.88802132013851       1.56791157317853       1.15817098431670
O         3.50890120366982       3.14121152922545      -1.22179991631010
O         4.43502495010604       5.48067413101245      -1.10835063669610
