46
C12H28BF4N optimized with ForceField in AMS.
N        -0.00018901164818       0.00076513159575      -0.00086884712813
C        -0.84821863494517       0.64455447482552       1.06491329144139
C        -0.84963192385906      -0.63713161613878      -1.06899776248298
C         0.84293085864964      -1.06905906772410       0.64195810306553
C         0.85385360586125       1.06386572516698      -0.64105679031322
C        -1.91954356025907      -0.26598966137945       1.72049734925742
C        -1.91484141329838       0.27898428832631      -1.72594321783707
C         1.90619026793012      -1.73454904413939      -0.26942780348817
C         1.92226237221532       1.71835354792262       0.27302262038222
C        -2.71161138250473       0.50087356690958       2.77835426412569
C        -2.70822337327956      -0.48453240746835      -2.78548276280980
C         2.67755324798292      -2.80939104874941       0.49554373865712
C         2.71501895825277       2.77761431815691      -0.49162641588589
H        -1.35533296207210       1.55103637630201       0.66558163797751
H        -0.20541959231090       1.00978087292140       1.89487033262955
H        -1.36219895147942      -1.54144215592834      -0.67162082497497
H        -0.20739448072132      -1.00443524789694      -1.89838790037597
H         0.19606847330773      -1.89375857711182       1.01139733802043
H         1.35659310260136      -0.67062074652106       1.54522888287912
H         0.21441551824351       1.89463962528282      -1.01043746811877
H         1.36555025741643       0.66210477613682      -1.54396666704491
H        -2.64304010041950      -0.64559931630673       0.97115646539404
H        -1.44597272193687      -1.13056391461554       2.22759421467802
H        -2.63825984506914       0.66136460475221      -0.97796452575953
H        -1.43552252844558       1.14159689413515      -2.23110429686582
H         1.42917162830071      -2.22981102724166      -1.13875778448991
H         2.64004828258774      -0.99218279645249      -0.64245722775093
H         1.44618384456006       2.22380690840892       1.13717348825102
H         2.64506129273243       0.96850289469334       0.65279891322360
H        -3.46655046779968      -0.17162982456922       3.23783665310136
H        -2.03457311667576       0.86892210294262       3.57886614394355
H        -3.23841360026926       1.36388892329749       2.31825532953595
H        -3.45935040916051       0.19089640622467      -3.24677017793137
H        -2.03120828839431      -0.85615666553426      -3.58438778366160
H        -3.23969380283930      -1.34524074043706      -2.32626806139329
H         3.45380179837324      -3.25158122750302      -0.16413536300303
H         3.17460167164048      -2.37188275445999       1.38708918866127
H         1.99104071402501      -3.61803219259352       0.82541878552652
H         3.46437246230141       3.24151394350322       0.18384677888767
H         3.24800646902447       2.31742559213558      -1.35088289861626
H         2.03793557526263       3.57549552893998      -0.86508613658755
B         5.82282749545095       0.13541472071578      -0.16190214168119
F         7.20932228235367      -0.17208357599673      -0.16357673028912
F         5.13635540170130      -0.79311332478547       0.66205091887843
F         5.31776527167263       0.05857126287229      -1.48735424749526
F         5.62996461214004       1.44774180918534       0.34436777176732
