39
C9H20F2N2O4S2 optimized with DFTB in AMS.
N         1.01219253630637       0.40177122642038       0.10880137262074
C         0.56696410636997       1.69413187598001      -0.52007210892991
C        -0.15533989723781      -0.52764293304928       0.21487844574866
C         2.04863196666242      -0.18614439383548      -0.81600167115735
C        -0.59592608560992       2.34761085046469       0.21239897678600
C        -1.30852745328968       0.08444864327537       1.00247456648200
C        -1.77426610846039       1.38732293631355       0.35335904030829
C         1.61749812061826       0.64931652870245       1.44567237753786
C         2.80592948582062      -1.38668931381144      -0.25432984452825
C         3.76882060339702      -1.90959977127983      -1.31967226968567
H         0.28286908908841       1.46067414042642      -1.54996393447984
H         1.43009261561027       2.36170928019215      -0.52648763170969
H         0.19039612825759      -1.44587099480089       0.69407967268627
H        -0.47852095702002      -0.75995559276671      -0.80399511434796
H         2.75602633197194       0.61558964436709      -1.03728021746549
H         1.53026559979748      -0.45985119628583      -1.73877828388016
H        -0.89515065659228       3.22123272827377      -0.37202881070688
H        -0.27463826799189       2.70658142644952       1.19281286506685
H        -1.00803219747208       0.26343108704239       2.03807118016078
H        -2.12548981044481      -0.64185718735709       1.01233866178524
H        -2.55465237181361       1.84437945394056       0.96607783858617
H        -2.19786718285895       1.17127149876363      -0.63318506399713
H         1.72801583381464      -0.29590828911388       1.97188476689013
H         2.58789336829230       1.11410696868509       1.30286106231193
H         0.98516755478304       1.31724563906060       2.02182402545398
H         3.38440066791020      -1.08604758536256       0.62187070894522
H         2.11621827065002      -2.18333648778560       0.03952799471495
H         3.22552955957574      -2.23074149993113      -2.20932614608739
H         4.47631765636962      -1.13062578234523      -1.60398043638246
H         4.32542342203312      -2.75874165878027      -0.92508042462933
N         4.65534433368243       3.66939347995095       1.11681841131625
S         4.68220238869054       2.65755354336379      -0.09435899714503
S         3.31503328106227       3.79472099178361       1.95538009061977
F         4.59879511745244       1.16294515543702       0.61781551699704
F         3.38805042449164       2.47605891946282       2.92561313740322
O         3.53191539238861       2.62373048685191      -0.96033460055697
O         5.97277145365788       2.69156033190089      -0.68600439371547
O         2.06745533489658       3.59649704826526       1.26516737935627
O         3.43674071753997       4.89465977783133       2.84440652422739
