40
C12H26ClN optimized with DFTB in AMS.
N        -1.34682771543962      -0.06008435730521      -0.05437069792638
C        -0.99065202178219      -1.45868851710920      -0.52149363452183
C        -2.62069317728615      -0.20023255912771       0.75023542625734
C        -0.26866571287642       0.48284839628132       0.84305023648860
C        -2.22008881395017      -2.31412352993421      -0.26388862945300
C        -2.78720511194679      -1.69086711652246       1.00538732452337
C        -1.56807551765163       0.81018779253050      -1.25202171998559
C         1.09512555549699       0.60064081373644       0.16863387058577
C        -1.93533149135911       2.24909563956683      -0.91652477132169
C         2.16416910429725       0.76882781694972       1.25566350706905
C         3.57593260004527       0.96311268098261       0.69257844922443
C         4.16096639611993      -0.29082015327431       0.01851841229208
C         3.99085338974948      -0.30122965040330      -1.50080911225950
H        -0.17210489934383      -1.81970744535966       0.10877539123602
H        -0.68405262912441      -1.42988713843450      -1.56654292786630
H        -3.44950739092895       0.18362422677545       0.15088909567051
H        -2.53749482248410       0.38734185991018       1.66389919949144
H        -0.19794712174866      -0.22511226840250       1.67743029045163
H        -0.60311693662470       1.45249700028630       1.21707916984100
H        -1.93166337831719      -3.35474737797516      -0.11346894071943
H        -2.93574597025786      -2.25517524686124      -1.08945809245455
H        -3.83348910696312      -1.94567030911501       1.17502851841819
H        -2.18539254754402      -1.99910413922657       1.86507397472781
H        -0.64886596346115       0.79240650006040      -1.84191940678062
H        -2.36525971864827       0.34417869669030      -1.83742526652924
H         1.30344033916078      -0.30658921610285      -0.40086248353995
H         1.11961997225836       1.45006114604058      -0.52219668231962
H        -2.20922781101739       2.75150565804149      -1.84400480040013
H        -2.78242486755369       2.30100855318463      -0.23470311031053
H        -1.09440975592042       2.78197297067980      -0.47630973731991
H         2.14518821157072      -0.11263795248652       1.90392626130068
H         1.91037928433242       1.64061694109147       1.86849852037828
H         4.22202224838273       1.23784656508775       1.53232166473443
H         3.58173129618915       1.80476160005924      -0.00970936644805
H         5.23249096672997      -0.33527118670301       0.23916648975772
H         3.70315272980354      -1.18831665637415       0.44535758308037
H         4.45670750753858       0.58048522214178      -1.94448562829569
H         4.46696130793101      -1.18907636763734      -1.91816392938407
H         2.93861427386297      -0.31257967303328      -1.78616264433024
Cl        0.23983881766065      -2.31057949970857       2.28915209293760
