36
C8H20F6NP optimized with ADF in AMS.
N        -0.55570800355276       0.27756591574707      -0.09559330174157
C        -1.35091429298566       0.17894996933680       1.19717211359004
C        -1.33288900039568       1.06788009517674      -1.14568746833299
C        -0.31907675703529      -1.13344873766562      -0.64303549514853
C         0.75507853060141       0.97965526016435       0.18677492631409
C        -2.75014827482488      -0.38649898909945       1.06436424488252
C        -1.71980837373149       2.47923085214876      -0.75835476638134
C         0.70663369532770      -1.23416761354715      -1.75403782346471
C         1.67981483048752       0.27428311240652       1.16186678822093
H        -0.75023674876859      -0.44880166736755       1.86961771775816
H        -1.37466579966401       1.19639929888054       1.61529564352873
H        -0.70765766989240       1.06711307825782      -2.04689049830036
H        -2.21927722796418       0.47173625911405      -1.38571180672727
H        -0.02459663046919      -1.74566989862659       0.22204590316976
H        -1.29655819413978      -1.47174758971791      -1.01330764465213
H         1.24249279792965       1.10692094161775      -0.79003010426836
H         0.49409585381685       1.97733520961554       0.56442531715182
H        -3.19310754336717      -0.38795604056917       2.07238380238350
H        -3.39589534794001       0.21096074663679       0.40811975634641
H        -2.76018173795886      -1.41633873364292       0.68624962893563
H        -2.31726878363236       2.86619470635935      -1.59803353728902
H        -2.36203524771714       2.52419290934412       0.13309021763655
H        -0.86308378609965       3.15559328765349      -0.62505492665104
H         0.67236604962407      -2.27407395227026      -2.11303034608835
H         0.44549599651702      -0.61530172205549      -2.62186285516768
H         1.73441852530435      -1.02274318789844      -1.42551017205913
H         2.61328460689905       0.85473743344937       1.20978734919348
H         1.27025533943530       0.23127407029569       2.18036840454182
H         1.94089647330795      -0.74278421235778       0.83888578947181
P        -3.45709207580364      -1.22905943722602      -3.39275253387111
F        -1.81064024982258      -0.89424310409797      -3.45557040889535
F        -3.27737759217858      -1.49958941101350      -1.72437519244273
F        -3.72643938228684       0.38320895007299      -3.04248335583538
F        -5.05772555298684      -1.53722257685446      -3.25520065087863
F        -3.58776929928490      -0.92718857387446      -4.99263198098976
F        -3.12885163704838      -2.81541004239300      -3.66078113023982
