46
C14H26F3NO2 optimized with DFTB in AMS.
N        -0.54786159555827       0.53327222703123      -0.01251764485864
C        -1.20003739679743      -0.39597723902186      -0.99214081775929
C        -1.61767461937440       1.09541901442906       0.88815875425398
C         0.50909398566930      -0.15756550386361       0.80727936878786
C         0.04712560988652       1.66470994075691      -0.81030225435670
C        -1.96331666170482      -1.52573013522054      -0.31046637541420
C        -2.43206029692020       0.02204060876210       1.59616088444189
C        -3.04805195468162      -0.96236186541698       0.60668632576868
C         1.62489697704052      -0.81305415179038       0.00130474796419
C         0.86210199091627       2.67320991456146      -0.00005301860696
C         2.67365640418427      -1.37085704244352       0.97384841942266
C         1.20427774160227       3.87163221378311      -0.88392964273460
C         3.81188126295253      -2.05510480172033       0.22176731402085
H        -0.42449090393760      -0.79180665969524      -1.65024765969733
H        -1.88837655720563       0.20789990143203      -1.59091113626769
H        -2.26507555508438       1.71299349591244       0.25862933666086
H        -1.12563700110980       1.71880367038113       1.63544559147715
H         0.01067215688907      -0.90074890579628       1.42823155870619
H         0.91857369167887       0.59474516811641       1.48032704086628
H        -0.78972826333660       2.17108920896233      -1.29998022759628
H         0.67349523372271       1.21917029034369      -1.58718314226039
H        -1.27968608509788      -2.16297228619852       0.25555466248725
H        -2.41552184142309      -2.13713213207664      -1.09607598985231
H        -3.22006078202239       0.53628907962396       2.15180536879800
H        -1.80909504580541      -0.49697149386876       2.32716822785903
H        -3.80840513175380      -0.45686419965224       0.00143590973772
H        -3.53175847822160      -1.77870219826788       1.14763920450313
H         2.10465702833943      -0.08832559690013      -0.66237831241811
H         1.23472160814438      -1.63003989622198      -0.61382517354290
H         0.29968572991407       3.01513931427509       0.87084835937671
H         1.78746439169048       2.21737257888870       0.35641209325199
H         2.19593633340784      -2.08687434167152       1.64948617514759
H         3.07313885910947      -0.55413482463734       1.58056418523130
H         1.80416411017699       4.58067476448370      -0.31515679770057
H         1.77512408508592       3.55480707171632      -1.75774179849200
H         0.29770493309518       4.37498248359176      -1.22210035869439
H         4.31220314754430      -1.34845321724308      -0.44192930354975
H         3.43504099136324      -2.88667001398592      -0.37598223655273
H         4.54253283184655      -2.44074731023793       0.93219468703490
C         0.44053687571965       1.39839621483612       4.25245040527004
O         0.16109375411575       1.92064151304077       5.30530441204821
O        -0.21996367785548       0.84803108669294       3.36050387255190
C         2.03419717342411       1.41716239692447       3.85305875895293
F         2.53458637684071       0.16512813600739       3.72305753410373
F         2.84417373349055       2.07799341296258       4.68121772067431
F         2.19776267943946       1.98894946431498       2.61688236495551
