38
C10H19F6N2P optimized with DFTB in AMS.
N         2.51752665896537      -0.68351220004646       0.46389255615678
N         3.47690725158246       1.24062909748198       0.52120817650636
C         0.32426110040052      -1.78778774457012       0.31797995875554
C        -0.38360676309041      -0.61832802584057      -0.37269716164443
C         1.81021690702372      -1.85462291582413      -0.03985666244761
C        -1.87890482144131      -0.60107722920116      -0.04115429044848
C        -2.58320933900996       0.57508997142845      -0.72501954900539
C         2.75966413736140       0.41890181059524      -0.23870881242178
C         3.09480494981020      -0.56522466137184       1.69944953565457
C        -4.07520898861101       0.59677616549727      -0.39790848810683
C         3.70807058867120       0.64702780880855       1.73232242032123
C         4.10273319634272       2.46158310988464       0.04142731381638
H         0.21579792692785      -1.70093115665062       1.40381647281935
H        -0.13477345457956      -2.73047796333955       0.00688594339086
H        -0.24845427047843      -0.70126870826944      -1.45604663333509
H         0.07097598094827       0.32499443042257      -0.04995811678688
H         1.95739802158270      -1.88310808369751      -1.12260683288277
H         2.27183386952373      -2.73800839999502       0.40752669732445
H        -2.33467618962768      -1.54145804172118      -0.36881817133312
H        -2.01014871792574      -0.52658833606384       1.04402054034448
H        -2.12423684532678       1.51414417780544      -0.39703088418931
H        -2.44881026877647       0.49812570528078      -1.80903714455302
H         2.46950502449503       0.59808417306942      -1.25866518402450
H         3.03366264044224      -1.34535454109765       2.43777927172757
H         4.28331831011415       1.12684238369219       2.50461879074436
H        -4.22990439707850       0.69321853862567       0.67771268450722
H        -4.55385016994166       1.44067757393015      -0.89488924028848
H        -4.55396477113166      -0.32306801249410      -0.73630527918425
H         5.10882943086907       2.21765297848344      -0.30308214146092
H         3.52391022084720       2.84700853798862      -0.79521885302545
H         4.14308033298254       3.19119498322232       0.84853372608323
P         4.93533374136748      -0.30915242419370      -2.66819365684854
F         4.67270791732599      -0.21876844167255      -4.26890540453266
F         5.60582181535969      -1.78480155405098      -2.80132819696277
F         6.37992211395198       0.43071548995369      -2.80386619044216
F         5.12578106354017      -0.37080743375816      -1.00427419228599
F         4.19275241803544       1.19249200860198      -2.46705124501011
F         3.41891324294808      -1.01805432101385      -2.46355906513183
