31
C11H17NO2 optimized with ForceField in AMS.
N         1.10947169961241      -0.00126765964150       0.50698902227697
C        -1.25924619392776      -0.00090152587366      -0.15361906265860
C        -0.26772565745091      -0.02580346133284       1.01383808668903
C        -2.70646709049096      -0.01805620749109       0.34899636003408
C        -3.69341901037812       0.00564221082106      -0.81458972431870
C         1.73340844773470       1.19790178760588       0.29368493633711
C         1.75132969585606      -1.17679851600169       0.22621216348805
C         3.03583168836191       1.23991824903911      -0.20938805149925
C         3.05385424966535      -1.17033259178698      -0.27839100315760
C         3.69741637777461       0.04687646428027      -0.49685918327290
H        -1.08150990531350      -0.88720244678639      -0.80158791068564
H        -1.08800318809895       0.91710695131269      -0.75766398120535
H        -0.43395094856284      -0.93776908738601       1.63020594689570
H        -0.44709263266400       0.84799652412707       1.67979808211588
H        -2.88262969750913      -0.93538478929912       0.95194977541111
H        -2.88912200329828       0.86886600204914       0.99404681971790
H        -4.73191097755639      -0.00617029136996      -0.42181160844131
H        -3.55356867896946       0.92594891776110      -1.42082200604746
H        -3.54848141258118      -0.88540556734208      -1.46193318625074
H         1.22243376158699       2.12971025956021       0.50548872270600
H         1.25528013903246      -2.12720710867124       0.38560778147928
H         3.52536980465285       2.19031073022167      -0.37856005815184
H         3.55770797105451      -2.10201967909518      -0.50119629058516
H         4.70524745780332       0.06538549362574      -0.89092814240552
C         2.34291078478727       5.04818674157805       2.09762497723210
C         3.57396988982965       4.69692065458251       2.87141520262093
O         4.67348841267907       4.82562968563640       2.35809027536612
O         3.48452800041979       4.28239432611419       4.01601642725458
H         2.37167739966027       6.12267760033309       1.81923737093906
H         2.29514493143778       4.43344266546389       1.17457415492846
H         1.43088507415246       4.85870388206566       2.70339645348770
