39
C9H16F6N2O4S2 optimized with ADF in AMS.
N        -0.90206798871373       0.06764888368930       0.02760893944183
C        -1.93949700678452      -0.90092691134105      -0.51505087285280
C        -1.65941876304412       1.38462877225700       0.02675837169088
C        -2.72541138204737      -0.11550953981173      -1.56972691827293
C        -2.45826896041200       1.38274158817336      -1.26973601840841
C        -0.47373321379187      -0.27660977993956       1.44262148859751
C         0.26956855142378       0.14288011919818      -0.89214535761277
C         0.14507780741805      -1.64839604980743       1.59595178969749
H        -2.57408346223840      -1.16373866287577       0.33924359064060
H        -1.43194656008059      -1.79915202188136      -0.88777604534421
H        -0.94048335006067       2.20770885914019       0.14239757566427
H        -2.33745332101339       1.34405732343561       0.89192920628163
H        -3.79148324924930      -0.36292282032476      -1.46564353108979
H        -2.41322168960805      -0.37933108702933      -2.59086685511060
H        -1.90433409920560       1.86395014978989      -2.09011751540422
H        -3.39442506697715       1.93656047522972      -1.11468871427316
H         0.22174254100192       0.52295900176843       1.74460328089677
H        -1.38762324326611      -0.20480145939977       2.04965959872997
H         0.75329691846573      -0.83950455088085      -0.93761305365667
H        -0.07642287058583       0.42956736933761      -1.89226744521996
H         0.97394512784664       0.89255208144850      -0.50814328504228
H         0.32272398140735      -1.80162552292040       2.67004691896751
H        -0.54932820473500      -2.44181612160066       1.28687372988405
H         1.10345888215362      -1.76004617244766       1.06815632706094
N        -3.70043681480092      -0.53177049145870       2.36281461480346
S        -4.98792385573350      -0.12995353433363       1.47780091629616
S        -3.54527798308776      -1.74353341810154       3.41550187623425
C        -6.51494152614594       0.06876193453446       2.58897550007167
C        -3.70250945515745      -3.37911713441027       2.45836100272025
O        -4.71964992124155       1.22264276525556       0.98373263540889
O        -5.37774077634633      -1.16219531159136       0.51694697890084
O        -4.59418440638180      -1.82328671802688       4.41844590126788
O        -2.13569587414026      -1.74008558411647       3.80201014794331
F        -7.45559925875038       0.72949618157066       1.86912368728028
F        -6.22706114657328       0.78858707484548       3.69175402718672
F        -7.00997713430068      -1.12955162759814       2.94650737250110
F        -3.18052255419780      -4.37409773975713       3.21462019849253
F        -2.99373561333415      -3.33227947204336       1.28883131970119
F        -4.98013717611154      -3.67997353777618       2.16813989312582
