28
C6H11F2N3O4S2 optimized with ForceField in AMS.
N        -0.52790685818001       0.19259694580001      -0.36269145186612
N         1.65398258021848      -0.07576954281043      -0.03315852318717
C        -1.92719594787063      -0.09325640324849      -0.66852963636915
C         0.50222330454751      -0.67574285476676      -0.39157629147111
C        -0.00944112331409       1.37644861206838       0.02215084628352
C         1.34524999433895       1.20969510690797       0.22402710773292
C        -2.73892667224477      -0.19317600233487       0.61767298788625
C         2.97246587460864      -0.68597290235082       0.07194699898906
H        -2.34101264814049       0.71178575494336      -1.31430072090603
H        -2.00754289934490      -1.05426761100022      -1.22234681702042
H         0.41277007293617      -1.72241816800145      -0.65492861948797
H        -0.57264445701270       2.29188554695190       0.14799910352616
H         2.05057344527418       1.96781048145265       0.53822475316620
H        -2.33466480330615      -1.00700394593008       1.25691212880766
H        -3.79827799862634      -0.42010619729674       0.37495457992423
H        -2.69518900445450       0.76579187145869       1.17625579348180
H         2.92568635860004      -1.76587297989828      -0.18703969588217
H         3.67143435284262      -0.17424872400294      -0.62132538801258
H         3.35132133993016      -0.58067910624453       1.11034547455371
N         4.62951769715273      -4.20713167487926      -2.56539099882346
S         4.79756792038612      -2.80910049814595      -3.39887020460796
S         4.91862748161973      -5.65487251850708      -3.27086606301303
F         3.48508354030562      -2.61522401143594      -4.41998183970329
F         6.57051595493905      -5.85964572846273      -3.45112478356490
O         4.85638317755421      -1.65581164477371      -2.44018094218458
O         6.05577065282847      -2.84681278445920      -4.21992349126290
O         4.27004759358014      -5.70380333244897      -4.62594707402217
O         4.37133710943177      -6.75457883168451      -2.40635522796651
