26
C8H11F3N2O2 optimized with DFTB in AMS.
N        -0.46382952501666       0.35070689343828      -0.10734566183178
N         1.64981776989308       0.12482081606900       0.22528600211003
C        -1.90378493597334       0.12581556542167      -0.01990819021564
C         0.46828180257018      -0.46509977213658       0.38628801913948
C         0.13299588684935       1.50176426225977      -0.54501331282246
C         1.46904984909771       1.35552112471474      -0.34329505415769
C        -2.38433312932163       0.35874006343209       1.40872461804763
C         2.90200584852481      -0.32151557997457       0.81015026923569
H        -2.38644374602819       0.82059527328317      -0.71160362987485
H        -2.10894866749842      -0.89939976925880      -0.34396261943123
H         0.29818079752718      -1.42717711317146       0.83679344553611
H        -0.43585479343010       2.32728507233944      -0.93240751734475
H         2.28673354155690       2.03432309481461      -0.50343704722973
H        -1.92409279868447      -0.35850699390192       2.08705725053975
H        -3.46656134966442       0.24281893221166       1.44421871411593
H        -2.11465800874241       1.36297817478687       1.73474809401704
H         2.78690215467624      -1.34247860214385       1.16803657863500
H         3.69324719160550      -0.26721809370740       0.06355254454105
H         3.12707444169002       0.34943737651735       1.64352549654515
C         0.76306037262946       2.10012179535462       2.37661195039147
O         1.95257300875937       2.19830961342967       2.08691397785683
O        -0.25386566120884       2.56066225096428       1.87023680140814
C         0.48006040317980       1.03308565417110       3.57422311068241
F        -0.77699190970779       1.05950590035544       4.04241175903030
F         1.30327563269820       1.12532940072888       4.62322952892055
F         0.65556763711845      -0.23064400829804       3.06360485045557
