34
C10H16F6NP optimized with ADF in AMS.
N         1.89717072199737       0.09427609050047      -0.52794127685953
C        -0.52858494392341       0.07075457526178      -0.04725154859619
C        -1.91427042231738       0.32514877198601      -0.63923583790096
C         0.53859887104781       0.10095580158775      -1.13636397417775
C        -3.00039568277935       0.34164339945823       0.43626530054508
C        -4.38333823551453       0.63639351297762      -0.14032776315259
C         2.49949831406241      -1.08386778911101      -0.24581533773902
C         2.47681179258725       1.27343494153966      -0.21103587005088
C         3.73504406233239      -1.11352084671886       0.36940744079224
C         3.71831215270245       1.28749684205498       0.40612574077227
C         4.35748626000381       0.08981914755240       0.70260692045692
H        -0.49975536264197      -0.89902640173588       0.48456196931863
H        -0.29977641977025       0.86633952421716       0.68195829514819
H        -2.15204823516549      -0.44774048077628      -1.39455401435697
H        -1.89586957839042       1.29998174185759      -1.15742816440909
H         0.48386881822233      -0.77421810562227      -1.80142343430816
H         0.47400303836461       1.02212682709920      -1.73413767455861
H        -2.74268917131004       1.10955939399016       1.18744101006592
H        -3.01332333768710      -0.62933529247246       0.96524755781708
H        -4.39629233510280       1.61949919802487      -0.63702556362972
H        -5.15256150684003       0.64385957729283       0.64623778791842
H        -4.67136792953171      -0.12124666963740      -0.88740457091757
H         1.95632893496181      -1.98098782153828      -0.53761247484681
H         1.92799469858314       2.18064573284395      -0.47080685707475
H         4.20398556881575      -2.07501973106782       0.57852153138013
H         4.16462789052324       2.25498504015886       0.63704249012708
H         5.33677195546844       0.08731002695302       1.18517742113338
P         0.39724346322469       4.18361274740096      -1.60778545667315
F         1.13213543457382       2.90201580998064      -2.43902485605337
F         0.90884826073771       5.22090815158123      -2.75624630495777
F        -0.99718903566318       3.87696742268252      -2.41962492324064
F        -0.30326957851830       5.37939177221394      -0.74700973014650
F        -0.06910313591236       3.06183875074712      -0.42978367069463
F         1.82669714805929       4.37110892831730      -0.76177634803071
