31
C9H20ClN optimized with ForceField in AMS.
N         0.26704206087717      -0.11526922226424      -0.20115908724254
C        -0.58713265434775       0.69164275377301      -1.13187249746580
C        -0.50073249889089      -1.33020780782412       0.22833761759645
C        -1.95434903792418       1.08085686581385      -0.54730617802275
C        -1.88890517131286      -1.01960532762611       0.82459965511649
C         0.67610883008532       0.67541802004089       1.01221118882245
C         1.46280011003608      -0.55991859461585      -0.99658493086234
C        -2.72432734159057      -0.16610744187168      -0.12460796333991
C         1.53761726019652       1.92111033682920       0.73864684263176
C         2.52866179325572      -1.35341185219105      -0.21840362763774
H        -0.78844828241450       0.11337727297943      -2.06446033643515
H        -0.06606553561953       1.61170990371836      -1.47021207260318
H         0.05978390845354      -1.90433953004831       0.99766810208357
H        -0.65634721443135      -2.01905911458533      -0.63418538960386
H        -2.53930299420981       1.61554136948219      -1.32640387369696
H        -1.84377152149093       1.78057204300127       0.30678332285694
H        -1.79587728217865      -0.51339429161083       1.80724422604756
H        -2.42275496782144      -1.97706692240658       1.00872412710418
H        -0.20530720844089       1.02429864084606       1.58438394434389
H         1.22923557898244       0.03022950200263       1.72809015475345
H         1.14131508319515      -1.20190452283971      -1.84909759259323
H         1.96645706957190       0.31032436443966      -1.47254616680476
H        -3.66891997155738       0.13328187074511       0.37831306149950
H        -2.98675521618680      -0.76369501964935      -1.02531916199828
H         1.79252117533766       2.39667183486986       1.70927419335574
H         2.49332730737674       1.66505321138523       0.24087755679999
H         0.98740293969966       2.67673878611900       0.14404187600873
H         3.33041028123032      -1.65752014483539      -0.92399143246454
H         3.00613061855582      -0.73786835699203       0.56981645295901
H         2.11260413480892      -2.28052442210633       0.22269372768046
Cl       -0.09275261904544      -1.01316078977886       4.28018083981086
