17
C5H9ClN2 optimized with DFTB in AMS.
N         1.18748825406635       0.02926342515484      -0.30788329752907
N        -0.95854583352619      -0.17074208036026      -0.08760915223647
C         0.20004665717461      -0.85680729602919      -0.07866914357735
C         0.66577193674401       1.30502586798402      -0.22027375179419
C        -0.67216992718016       1.18024441906704      -0.08281415740853
C         2.58691539491465      -0.31689469446359      -0.13411986266228
C        -2.20662695639856      -0.76319183054096       0.35921059275859
H         0.27518741030314      -1.90739182132924      -0.29537937602213
H         1.29011129520125       2.17808990077052      -0.29287579042107
H        -1.44708344886967       1.92305771350168      -0.01130363344802
H         2.85196409333005      -1.12197580516945      -0.81966517281028
H         3.20039165178074       0.55904079344004      -0.33537827419145
H         2.72506143300471      -0.65079341259993       0.89808509584441
H        -2.06916993231258      -1.09982819281179       1.39068622970395
H        -2.99749715872790      -0.01781271135529       0.30482529301215
H        -2.45391857266404      -1.61463459586983      -0.27498023482515
Cl        0.48159764265957      -1.39143368278861       2.17833771710689
