32
C8H16F3NO3S optimized with ForceField in AMS.
N         0.83043753726738       0.00537533036838      -0.02723905435491
C         0.06974812241260       1.23184562687024      -0.40354135479965
C         0.07903978522432      -1.22588438406184      -0.40748552018159
C        -1.36489260549103       1.25507477657188       0.15264613984213
C        -1.35556538813826      -1.26159259744646       0.14870693003829
C        -2.12855062267084      -0.00551606337288      -0.24851361325373
C         1.15637747505635       0.00361025715158       1.42216852824286
C         2.11320074631632       0.01198873838511      -0.77176608179890
H        -0.00148601010956       1.31461346687432      -1.51330725879903
H         0.60024330331972       2.14481220897186      -0.04957476190927
H         0.61578505054557      -2.13606135352405      -0.05549676793204
H         0.00938297864329      -1.30653387225607      -1.51747894688108
H        -1.89580773732922       2.14135666012947      -0.25713827659511
H        -1.35718659005181       1.36322312208872       1.25717133804343
H        -1.34710082223752      -1.37282884266267       1.25296510659609
H        -1.88014961287070      -2.15064590654644      -0.26331124873421
H        -3.12102090585974      -0.00990690554551       0.25155420864065
H        -2.29758996327790      -0.00455518142183      -1.34789087847875
H         0.24947631024621       0.00011160840369       2.05799204539130
H         1.75411293684922      -0.89481780264294       1.69522097289817
H         1.74970172833021       0.90383936439189       1.69855841943181
H         1.93987178255457       0.02172135569116      -1.87045624998712
H         2.72070543103266       0.91078078799173      -0.52126204495598
H         2.71978726368941      -0.89026040134915      -0.53228397968517
S         5.14807823863506       0.72695147025947      -4.11414877561916
O         6.65822536541668       0.75171206489278      -3.83726887294112
O         5.04771288366039       1.28222787644830      -5.54220959980861
O         4.61703019987897       1.88209535632541      -3.25289975213894
C         4.33928289089374      -0.87636560643851      -3.84875261926474
F         4.50012176241179      -1.26034787516954      -2.53157101743234
F         4.91079765197994      -1.82428696865782      -4.67524630186591
F         2.99275580397219      -0.76724821822029      -4.13873019610739
