34
C10H21NO2 optimized with DFTB in AMS.
N         0.35864693473267      -0.17584818916015      -0.09516393573255
C         1.63815877043430      -0.94171465130151      -0.28233667406106
C         0.81959361372898       1.17600624470869       0.34706798732444
C         2.62980034822513      -0.38438167311057       0.73540922044282
C         2.00369384274560       0.91202469276023       1.26900935310627
C        -0.46506745766473      -0.81247619994014       0.99001623430368
C        -0.38496177756833      -0.09325660309874      -1.39619450098322
C        -1.14060753264742      -2.11209211524990       0.57252636098415
C        -1.64160791389040       0.75596200414381      -1.32833831226582
H         1.96654552225340      -0.78190599976292      -1.31465448255082
H         1.43692416091382      -2.00454007052659      -0.16286787074717
H         0.00405291265932       1.71333453990022       0.83133377535104
H         1.13692114759270       1.72027025472701      -0.54535079441395
H         3.58524399649561      -0.18318299841625       0.24713943604459
H         2.80843077301398      -1.09133259013835       1.54832885824742
H         1.66719062747761       0.78774708768014       2.30106625772365
H         2.70469509137804       1.74756462021084       1.23848005590159
H         0.21273229266584      -0.99580285530086       1.82712968250560
H        -1.21327887432119      -0.08186395462540       1.30944725489642
H         0.31366728373599       0.31085238223707      -2.13205812842940
H        -0.60772112462006      -1.12159455087434      -1.69061500597085
H        -1.44817858141541      -2.63871914851234       1.47573713772096
H        -2.02486387304766      -1.91991940249711      -0.03236320220816
H        -0.46863890963182      -2.75133802460212       0.00159257655508
H        -2.10023401182450       0.74264676424566      -2.31679972354843
H        -2.36425722155907       0.36344054846120      -0.61402927070182
H        -1.41783530516650       1.79112688440231      -1.07018570375869
C         1.19464446305681      -3.49523364252705      -4.19896018113242
C         1.02863050588497      -2.49398662609104      -3.03297324417343
O         0.43389771931436      -2.90848353548516      -2.01016576715184
O         1.49845251770922      -1.35002187598214      -3.20876060552861
H         2.25539149903498      -3.61341712787312      -4.41648565899506
H         0.75945847185569      -4.45845393149218      -3.94037031821935
H         0.70332386334809      -3.09183310720914      -5.08352704793507
