37
C9H20F6NP optimized with ForceField in AMS.
N        -0.05483161471678       0.24840757117304       0.16283354390995
C        -0.98121255986965       1.23860888284551      -0.47433863370759
C        -0.49092431036927      -1.14743836684528      -0.15227116690096
C         1.30479756893727       0.49955181377386      -0.42275433605118
C        -2.47153966642581       1.00343784108176      -0.16802051113617
C        -1.96785864469055      -1.42322837295085       0.17891091239567
C        -2.88142931599070      -0.42192271591841      -0.51799301844124
C        -0.01178490397128       0.47131009988259       1.63453268320319
C         2.44842555257124      -0.38699733573456       0.12785151605680
C         3.77317590875036      -0.04829471326966      -0.55218777909855
H        -0.87195810107291       1.21185418816805      -1.58394111086393
H        -0.72239098372888       2.27526118560146      -0.15809771871053
H         0.10980154958157      -1.88982024564890       0.41650783789477
H        -0.33784062092868      -1.36589582904876      -1.23417793597064
H         1.59569668018183       1.56322462748074      -0.25989602697772
H         1.27386171383070       0.35434954510695      -1.52773755098737
H        -3.07864508285024       1.70842523267306      -0.77628223472585
H        -2.70253832510789       1.22025804306809       0.89510242141700
H        -2.13401861435653      -1.39217852468811       1.27680000546205
H        -2.23105621845111      -2.44748328840652      -0.16505484997348
H        -3.93124050974746      -0.59390647442940      -0.19754810452992
H        -2.82698099106533      -0.56829990623981      -1.61919589425417
H         0.56015293904570      -0.32678461992411       2.15343002530269
H         0.45165074533898       1.45298163914958       1.87882415789462
H        -1.01985744362594       0.46221686733056       2.09272204427879
H         2.58327849804930      -0.22595413488322       1.21705928337511
H         2.24174822786650      -1.46104458478540      -0.05799758572043
H         3.70729664321578      -0.24028757362767      -1.64406015440447
H         4.03588378395140       1.01682940674589      -0.37994208018328
H         4.57985449654624      -0.68189412164645      -0.13006170421998
P         7.26607953187221      -2.29176463166911       1.71154040160417
F         6.47619963558743      -3.18988180171155       2.94427370529845
F         8.15166792898872      -3.67006334874806       1.19572464996919
F         6.02450637984481      -2.75323941573548       0.61865510553201
F         8.01342744315078      -1.33352038283120       0.49739423982173
F         6.39307799260992      -0.89462882481779       2.19867320958398
F         8.54123296134826      -1.94686641492080       2.80961057115727
