41
C11H21F6N2P optimized with DFTB in AMS.
N        -0.60787388729133       2.02688550485560       0.40517687770015
N        -2.27176121424324       0.70136614956086       0.73053211629834
C         1.83005682808087       2.19970014570201       0.15280738938064
C         2.02243337197890       0.74672906516311      -0.29232758840558
C         0.46641958409158       2.75160814757190      -0.26224897749449
C         3.40153852907524       0.21854486188974       0.11420661245239
C         3.58817375257494      -1.23805708305002      -0.32218548761280
C        -1.35699755001511       1.08465006447465      -0.15794026588921
C        -1.06482830160556       2.26937298337319       1.67034039497948
C        -2.12014881272065       1.43815433312684       1.87444135254299
C        -3.38889237761864      -0.19284963249767       0.44090085976778
C         4.96303722955349      -1.76820179353885       0.08077459598596
C        -4.54233391346875       0.60138437702829      -0.16471504599999
H         2.59840602699278       2.82957746572407      -0.30396418481810
H         1.93581581838948       2.27245847706540       1.23987875327194
H         1.91072350299349       0.68266112823474      -1.38004517212894
H         1.24474238093945       0.12078656994901       0.16025596261624
H         0.37347276197783       3.80499885742376       0.01018076081689
H         0.30587454554802       2.65456248621531      -1.33843182004766
H         3.51287542617014       0.29238695833246       1.20158125585581
H         4.17808185249733       0.84029067344944      -0.34381407344780
H         3.47446869286175      -1.30909843763570      -1.40919047901725
H         2.80966316467458      -1.85772600564114       0.13640607800210
H        -1.25092792152782       0.70917240280039      -1.16008982096642
H        -0.62148198436528       3.01591768698167       2.30541153902816
H        -2.76955377449192       1.31542107577398       2.72317021916433
H        -3.03355838194138      -0.95961641172230      -0.25330431491971
H        -3.68729084882231      -0.67036393269205       1.37824414786863
H         5.08794866842017      -1.72344057958811       1.16361834402570
H         5.75213701616373      -1.17588562405227      -0.38434235026176
H         5.07212095507371      -2.80462576660556      -0.23911908181401
H        -4.86430387932903       1.38097139234174       0.52345705036507
H        -5.37478414489229      -0.07273121789752      -0.36160799458486
H        -4.23219343574905       1.07339592587728      -1.09551265882119
P        -2.93442344854813       4.00271561418402      -1.49615669726739
F        -3.83657860591178       5.24926391771951      -0.96974070835790
F        -3.22968626003310       3.18148977736280      -0.06533267674408
F        -4.24399668586109       3.26835715652790      -2.15978244023320
F        -1.98820151532787       2.69328444599922      -1.99915392485112
F        -2.59406372037105       4.76474293321160      -2.89184581187253
F        -1.57643287812218       4.65086443400078      -0.78688987636661
