29
C7H14F3NO3S optimized with ADF in AMS.
N         0.48098622758992      -0.68746395515940      -0.47284803566292
C         0.00880105621440       0.73323795913190      -0.66890810981987
C        -0.80046083915391      -1.45464482588624      -0.13874195366981
C        -1.02832097918527       0.93814982823973       0.42186823221942
C        -1.74797571406515      -0.42725360811077       0.50326112805545
C         1.44043632969775      -0.77202717495840       0.67985770661770
C         1.13890092601387      -1.23470807760035      -1.70098422100968
H        -0.45611991307463       0.77086763263707      -1.66630254767313
H         0.87483422496711       1.40874698525150      -0.64035559053538
H        -0.51243525621451      -2.30689177343678       0.49297359909142
H        -1.18218519482136      -1.85322418920729      -1.08759091320728
H        -1.70854722830140       1.76518725434651       0.17250567690629
H        -0.54405527588315       1.19380783892610       1.37640995184496
H        -1.99174335401114      -0.69507792653193       1.54107384326918
H        -2.69393933852548      -0.39749111422075      -0.05752792277293
H         2.34217856274283      -0.20393204453186       0.41862948760971
H         0.96420957966457      -0.34856394858018       1.57142207727134
H         1.65832626295354      -1.83685947914565       0.85634380731109
H         0.47168008219820      -1.05720586373144      -2.55392959729701
H         2.09591530452210      -0.71795600222792      -1.84608189261472
H         1.27025244442022      -2.31937100056660      -1.55978449649694
S         1.02315375280907      -4.69914927745312       0.09020723764116
O         0.97912640931991      -3.72728168562737       1.21535546825463
O         0.50085753758789      -4.14030132049659      -1.17976855185836
O         0.63235975993374      -6.06738923561127       0.40988846842773
C         2.86641706827030      -4.82105541585427      -0.26029619685641
F         3.54490557542172      -5.33935369718351       0.79293217552016
F         3.39825678458697      -3.57555678391639      -0.51797273688001
F         3.11368276612190      -5.59406804249471      -1.34690217878580
