35
C11H17F3N2O2 optimized with ADF in AMS.
N         0.65808644942644      -1.58672351859986       0.44729346070187
N        -1.23393689297727      -0.93067331761898      -0.39330615831010
C         1.90713768447898      -1.60349302066050       1.22550021295564
C         3.01125742336906      -0.77907663010440       0.57372641065975
C         2.78347684379847       0.72823780863528       0.66012849211939
C        -0.28232613504215      -0.63442170091432       0.49857080943644
C         0.32257197332912      -2.48532669762833      -0.53963044210039
C        -0.86910534724165      -2.07848641432530      -1.06411677895713
C        -2.38327093182972      -0.07821520174475      -0.72682249147618
C         3.98716135936900       1.50463228120056       0.12817622021684
C        -2.21831889552716       0.58053908361247      -2.08778311423764
H         1.66045443704833      -1.23783940078587       2.23570228461099
H         2.19181896981469      -2.66233880043561       1.31373306015985
H         3.07933409988268      -1.07685450815805      -0.49057461553935
H         3.95585784912686      -1.05297642922598       1.07849548754589
H         1.90628047476292       0.98056451313000       0.03901251861984
H         2.58105748540759       1.02101510269645       1.70969009178262
H        -0.26568677933584       0.23362596978790       1.14316214014754
H         0.98150450440983      -3.29682613986637      -0.81928805972208
H        -3.28144999978604      -0.71350838031724      -0.67356060164303
H        -2.45574887130388       0.66898731542039       0.07742453445106
H        -1.45721148658026      -2.47984560829181      -1.87872652075493
H         4.16199528787229       1.25324126411934      -0.92934936683541
H         4.90101330244032       1.25953316603591       0.69441677578456
H         3.82545062290743       2.59092430673641       0.19476464178747
H        -1.23653440349233       1.07377194224146      -2.15316654346948
H        -3.03250227433264       1.30452564700735      -2.24052053133741
H        -2.25889241137008      -0.16218698803284      -2.89785695402903
C         1.38012686861442      -0.58165200960150      -2.72228598947812
O         2.21425733812551      -1.48226938448397      -2.47500636254858
O         0.89938087956951       0.32818118303973      -2.00022082103529
C         0.76778947632146      -0.66227371264151      -4.16624878542732
F         0.21296270165052       0.50763621684118      -4.60357348092322
F        -0.26268236682371      -1.59979144889135      -4.18083071980845
F         1.65986782561729      -1.05805747217589      -5.11407563894662
