47
C13H13F18N2P optimized with ADF in AMS.
N        -0.03838483913095      -1.05970901384750      -0.21380594207026
N        -2.06052876850298      -0.97635615735188       0.57742998726966
C         1.34359955565170      -0.69136372985756      -0.55788756240244
C         2.31657848921225      -0.94314505817970       0.59015889584074
C        -0.93958887103494      -0.26376443677955       0.38112084618544
C        -0.59409703347619      -2.31016176790151      -0.38150765502225
C        -1.86452719962812      -2.25663774178316       0.11137377001351
C         2.13126684976086       0.00996365502431       1.76431804177251
C        -3.25683387656179      -0.49837948892996       1.26944905841464
H         1.33586684262597       0.37027998503348      -0.85066945912607
H         1.60991622676273      -1.28352825547198      -1.44499825456281
H         2.22007792914489      -1.98977408431186       0.92003968238094
H         3.33197829111379      -0.83569811032481       0.17178114270046
H        -0.78964372513125       0.77248791960474       0.65302391106042
H        -0.03700654110329      -3.14425558789683      -0.78956420502070
H        -2.60597367595197      -3.03828537373525       0.22581107716239
H         1.13623262383644      -0.09531272466073       2.22022381802980
H         2.27316217777725       1.05762260900697       1.45239135889176
H         2.86490037861914      -0.20968897966387       2.55311288000960
H        -3.43418821746914       0.55005060142077       1.00292811318323
H        -4.10819872837913      -1.10696325986599       0.94660825544679
H        -3.11732411105229      -0.61406831239141       2.35113090023249
P        -1.38016870275628      -5.45225049443027       2.81072297520636
F        -1.30581174625380      -6.91902435374400       2.04553568529568
F        -1.56828042817634      -6.12377739489146       4.30775565473271
F        -1.17766841324706      -4.67982899212714       1.32234484731331
C         0.57200900900721      -5.67910379094536       2.99340113198458
C        -3.40460668971435      -5.56772200216286       2.52114548043931
C        -1.56456487607107      -3.58009634131405       3.62120697790862
C         1.46969205772554      -5.63324840638576       1.71647956404271
C        -4.49662901360753      -5.20789088606800       3.59258541442182
C        -0.45875940910763      -2.48498325758977       3.76728772321282
F         0.81920640822815      -6.91610578743964       3.53934888477293
F         1.13344180151445      -4.76100389840575       3.86216245183309
F        -3.69108760109761      -6.88736085990198       2.26416868909736
F        -3.78354958419835      -4.86185618744461       1.37831347734674
F        -2.12888414281519      -3.65313522722969       4.87061378554022
F        -2.49787386519107      -2.93916021304209       2.79890915074589
F         2.75076419825963      -5.95503152219932       2.05258471074112
F         1.51757640635098      -4.38268416398605       1.15949883201968
F         1.06382257057187      -6.49490034241382       0.76326060550087
F        -5.70710833239666      -5.65260395848687       3.13882900121123
F        -4.24999619859912      -5.81374844868237       4.77233727903743
F        -4.64139657818050      -3.87696180143762       3.81089540182194
F         0.28488845860162      -2.62765670937026       4.87636074891219
F        -1.04721872766069      -1.23820216785991       3.85689185708562
F         0.35055206623081      -2.43725208227809       2.67894262198593
