36
C10H20F3NO2 optimized with DFTB in AMS.
N         0.35076597419545      -0.05968464724263       0.09298613160395
C        -0.64281019933249      -0.27602592299811       1.19863593842098
C        -0.32314810441839       0.26908923781782      -1.20973392250882
C         1.17359917172145      -1.32283690425508      -0.07307284227396
C         1.26325652199426       1.09147455762061       0.46400092926801
C        -1.77380636991497      -1.24692224527187       0.88600727505221
C        -1.32593685957675       1.41413955860754      -1.16360643996220
C         1.93470577938730      -1.43440374266705      -1.38479645161439
C         1.78902844119567       1.07513884586658       1.89009302943145
H        -0.07557762248583      -0.65181678900297       2.05246892841585
H        -1.05589756528919       0.70127993773531       1.45888197845139
H         0.47250709405019       0.52564363425737      -1.91141305326814
H        -0.81573774924255      -0.64200218489938      -1.55723457165227
H         1.88317500311586      -1.34007252395309       0.75490965794491
H         0.49313453496394      -2.17051914092949       0.02479607102949
H         2.10166408112778       1.04953892259569      -0.23074998983831
H         0.70642949669943       2.01463865166039       0.29717695096436
H        -2.37072597480131      -1.35180981025981       1.79206177245677
H        -2.42376327101140      -0.88217774110935       0.09341194794389
H        -1.40374153371583      -2.23254086089573       0.61029443567860
H        -1.73484612665759       1.52428772430717      -2.16810307358942
H        -2.15103670770241       1.21921718822526      -0.48184079672440
H        -0.85672503803154       2.35625987794701      -0.88718640992748
H         2.66072995051081      -2.23702440417651      -1.26079979365703
H         1.27728932435041      -1.68127143902028      -2.21810006080684
H         2.48847597639852      -0.52672562268696      -1.60773496078097
H         2.56770275762178       1.83567488620316       1.93955035542314
H         1.01433261386771       1.31952744119334       2.61631500901879
H         2.24803967035352       0.12277807300121       2.14357753783826
C         4.89141687755779       0.22268986956620       0.08457754999814
O         3.82803931068121      -0.32016497273695       0.41086771921519
O         6.05906272986752      -0.03991519195320       0.24311036407466
C         4.58667578365180       1.61189626493635      -0.75032992857607
F         3.97477811543389       2.53259551022940       0.04487902589366
F         3.68945692784669       1.37780947093444      -1.75692177390105
F         5.63439544288727       2.21772727415357      -1.30813894054237
