34
C10H21NO2 optimized with DFTB in AMS.
N         0.50173789885719       0.25696335546998      -0.32720883642389
C        -0.96534496537974       0.35819881851787      -0.60329794090517
C         0.56797964101606      -0.60783572933160       0.89502557796800
C        -1.62024964265965       0.45558375729664       0.77511035557092
C        -0.60180258427610      -0.15017684374340       1.75468148818413
C         1.21706080226554      -0.36098754010527      -1.48660023546239
C         1.05103853143391       1.61125048693817      -0.04638452404044
C         2.71935445977848      -0.53042261474191      -1.25548877307756
C         3.33489679210152      -1.32034472244764      -2.40814763816079
H        -1.27246674531820      -0.55372400889382      -1.12133560380923
H        -1.15615707441932       1.21965232029807      -1.24443042032234
H         1.54124539228704      -0.45687169391412       1.37315786847397
H         0.45507189051032      -1.64536887196169       0.57086960157330
H        -2.56362363966377      -0.09397930582797       0.77871419408654
H        -1.83302459420245       1.49590425376064       1.02863282478580
H        -0.25262814403170       0.59792874045714       2.47083103458477
H        -1.02255745104212      -0.99204123765339       2.30635535350439
H         1.03067802159608       0.27862692077069      -2.35494690559020
H         0.75308942640945      -1.33557060134250      -1.66660331053563
H         0.94988705280149       2.22524096087867      -0.94027926489899
H         0.51102766753084       2.04748921234290       0.78873761289053
H         2.09477282366514       1.50264199074164       0.24053079615309
H         3.20429796697296       0.44496721085209      -1.18853170970268
H         2.90037768575025      -1.04683392972597      -0.31116372992272
H         4.41048679536091      -1.40126177586023      -2.25580156248444
H         2.91290816954236      -2.32492124280956      -2.46021013839279
H         3.15698550262287      -0.81734704703859      -3.36014218607615
C         4.01975733937591       1.49365443312456       3.54100143001315
C         2.93972227456017       1.08694442362928       2.51255875419794
O         3.31934005192085       0.37443654256534       1.55125422658654
O         1.78273116443934       1.51204647661254       2.70426695521928
H         4.82572354789812       0.76254893921030       3.54953626677950
H         4.42123508912771       2.46267998313791       3.24471968400064
H         3.57711779636848       1.58367967949323       4.53111087973292
