59
C17H21F18N2P optimized with DFTB in AMS.
N        -0.52651970273776      -2.01885649870488      -0.31470433228726
N        -1.55118167073640      -3.63683038917465       0.66949514788349
C         1.48065959228280      -0.57542190264363      -0.34848966275431
C         2.89277088496329      -0.98204236857637      -0.78418371471374
C         0.39718164041397      -1.28906882776430      -1.18106163487664
C         3.94097124942867      -0.47119869247298       0.20911520709313
C         5.33759649726417      -0.98067811723074      -0.15989868446735
C        -0.71377246265125      -3.33733222418936      -0.31943809770089
C        -1.25118531288627      -1.46702469448285       0.70753506326198
C        -1.89628099905789      -2.48874635620132       1.32842919201847
C        -1.97670147843986      -4.98304323884347       1.04987316523265
C         6.38257600507424      -0.51357897548895       0.85124444078240
C        -3.48230142806967      -5.13696134185183       0.88810230925594
H         1.35693500115788       0.50725545309753      -0.44386138404307
H         1.34691816972369      -0.82998780273053       0.70579096726983
H         3.09815894709654      -0.58905620052609      -1.78529479544550
H         2.95457840350985      -2.07230818176850      -0.83122641677077
H        -0.18756122670986      -0.57294345619742      -1.76580881757142
H         0.83886702461832      -2.01982735007509      -1.86267887806774
H         3.68265090227402      -0.82228168320025       1.21384596901237
H         3.93447617684102       0.62429186493975       0.22394900489150
H         5.60638176913736      -0.62101381763375      -1.15917086055243
H         5.32466673194809      -2.07470677502525      -0.18861329637849
H        -0.24893610151266      -4.03847828409132      -0.99040085069520
H        -1.24810175248769      -0.40987049384444       0.90659107443080
H        -2.55226641765425      -2.49209478232634       2.18102258420198
H        -1.44759973907985      -5.69061856924858       0.41061212896370
H        -1.66834455707133      -5.14659086874433       2.08634736392192
H         6.14329003819876      -0.88997147596994       1.84659492218688
H         6.41877297802711       0.57639904972371       0.89110471162683
H         7.36774583913134      -0.88417987864181       0.56743805740591
H        -4.01802224797570      -4.44313977249779       1.53534514059308
H        -3.76140685363608      -6.15442923678475       1.15760220679833
H        -3.77503566208359      -4.95278441503346      -0.14544109664151
P         2.04679751387612      -5.80256159792739       1.48629068811020
F         0.96236005572641      -6.18212142490950       2.70914284436371
F         3.32640840596334      -6.01978186846681       2.51787322740985
F         0.74775028196386      -5.51319886907670       0.37207040172179
C         1.92318590204213      -7.71049315553922       1.04873887958695
C         1.75943359096094      -3.93263404557758       2.06118676118471
C         3.36236274594160      -5.30879768221388       0.04942445367807
C         0.52880887098609      -8.23858994625490       0.59168724714411
C         2.65828656195715      -3.27980230875166       3.14109278233454
C         2.87743089140210      -5.16493299442466      -1.41709248236227
F         2.26548816057381      -8.40928743205721       2.14006052780303
F         2.76535587826891      -8.06665319380688       0.06243994978001
F         0.49836502151657      -3.80997201205627       2.54045347288854
F         1.79394890780435      -3.11704248418595       0.97880443564754
F         4.36798512064220      -6.19810377739300       0.03859810503411
F         3.92353920044957      -4.11767362245847       0.36408455815207
F         0.49893820799052      -9.56835066446230       0.65161425595933
F         0.28064602916513      -7.88312509149407      -0.66943939733204
F        -0.47987267978724      -7.78137082567824       1.33883191662413
F         2.29679913184232      -1.99491028774926       3.29106777673108
F         2.50030167968155      -3.88527058788265       4.31088247620590
F         3.94458529450152      -3.29700809880617       2.82177003286672
F         3.89091712535141      -4.89632125054413      -2.23600301375178
F         2.00018272216280      -4.14640554032767      -1.53278390303036
F         2.26883437071580      -6.25981838025148      -1.85278012681484
