41
C11H22F3NO3S optimized with ForceField in AMS.
N        -0.88573469996664      -0.16630980981272       0.04819253839841
C        -2.01671564135798      -0.27367812141679      -0.92415363541702
C        -1.22071049204734       1.01498382394711       0.90255643819873
C         0.39018069801667       0.07979438389988      -0.70024293394182
C        -2.84153156439109       0.99517684832386      -0.83312052936574
C        -2.64133054216218       1.44432311289034       0.58670054401021
C        -0.81858825248021      -1.39654324421681       0.90181117972895
C         1.65067779550731       0.18630733452442       0.19212916217158
C        -0.47056422741706      -2.68724524643379       0.13785545051017
C         2.86219401265629       0.63636562801932      -0.63305745236185
C         4.11596380244861       0.73942617200740       0.23098793823781
H        -2.70084418218373      -1.11961079824237      -0.68241921535351
H        -1.68198072990309      -0.43422990029308      -1.97465186743163
H        -1.12144790219554       0.81212597617516       1.99377852352035
H        -0.56555380597725       1.89059395985412       0.68852803435102
H         0.56420778821702      -0.72389625743812      -1.44972680419243
H         0.29546852882193       1.01958168294922      -1.29305851813747
H        -2.43830555537897       1.76006868986868      -1.53348483027336
H        -3.91508253408787       0.81056845348265      -1.05744255212466
H        -3.35491901876509       0.91371472880357       1.25559455791341
H        -2.77711435164918       2.54321976021533       0.69154134921602
H        -0.07738398002335      -1.26957085158137       1.72085073365513
H        -1.79615861231275      -1.55635266384773       1.41261264268600
H         1.48826890524189       0.91194364882564       1.01642361219755
H         1.88355184682815      -0.80216731918824       0.64056568946882
H        -0.57387702721082      -3.55338407626609       0.82492722703627
H         0.57825510008097      -2.67209305641314      -0.22096854553638
H        -1.14926222100974      -2.85076549022096      -0.72351449053734
H         3.04855586675826      -0.09222829244208      -1.45222139080830
H         2.65832466453270       1.63062969102454      -1.08690647230206
H         4.37774539092035      -0.25412084955837       0.65344867404361
H         3.95790267585651       1.46210931481903       1.05948909066191
H         4.96285181029317       1.09675235280802      -0.38990508792601
S         9.26578444773248      -0.26983168389592       0.39640124057995
O         8.63927212558045       0.16435241632288       1.72978075215466
O         8.96293408644133      -1.77446776437139       0.34018303797603
O        10.77331732276741      -0.22659806492860       0.68679655089176
C         8.73283646229134       0.67887358603997      -1.05291802757561
F         9.03289100641523       2.01421367444995      -0.86461711174779
F         7.37067393618614       0.53151596407297      -1.22253842645051
F         9.38874671872567       0.21192553564351      -2.17535363532489
