54
C14H26F6N2O4S2 optimized with ForceField in AMS.
N         0.98423974608686      -0.31087197429831      -0.00034599526414
C         2.06014979058695       0.06233435589952      -0.97049324966624
C         1.64707384375488      -1.22974065604449       0.97564421007673
C         0.49331676601879       0.90675562264123       0.72509676025473
C        -0.11084277581004      -1.03028120119216      -0.72949970248180
C         3.26725557457257      -0.81670165877100      -0.70365112616414
C         3.14481707041661      -1.15229079917067       0.75563915638034
C        -0.24130531582229       1.93925270220146      -0.16348470950631
C        -1.29901955719055      -1.46846140255573       0.15897732476634
C        -0.56670626545457       3.20629990329555       0.63831659689837
C        -2.29870987288601      -2.30510338711147      -0.64910914741489
C        -1.30108999929544       4.23472212100232      -0.21752696945178
C        -3.48905746888582      -2.72512296916397       0.20783537925066
H         2.39555660611449       1.11718897493350      -0.84453717368367
H         1.75011709916805      -0.04141831352099      -2.03580846089560
H         1.35371354929557      -2.29330852000622       0.81912895061745
H         1.40967626280189      -0.99239378256227       2.03814517349120
H        -0.18735910480115       0.61795988449100       1.55619584284165
H         1.35459002167347       1.41664937635229       1.21700236754568
H        -0.50662406816586      -0.40098777311701      -1.55703785042543
H         0.30781445833914      -1.93692875290441      -1.22620415166536
H         3.20068127372957      -1.74646059923821      -1.31171350127560
H         4.22121057498549      -0.29052241410115      -0.92613398013029
H         3.57648293563776      -0.33114186657351       1.37037841900208
H         3.65053314175079      -2.11155585110285       1.00149409421910
H         0.38248530213725       2.21764923892601      -1.03859421300206
H        -1.19535847065485       1.51121628262056      -0.53542365640231
H        -0.94117926592324      -2.07031621523738       1.02063674254696
H        -1.83166979704062      -0.57730725251489       0.55045031056773
H         0.37342052865655       3.66296577287711       1.01761580029356
H        -1.20596355145791       2.94257505066420       1.50910945622974
H        -2.67087678214236      -1.71163911506658      -1.51270039745741
H        -1.79693053971496      -3.21782177609748      -1.03839375177385
H        -2.25637269651922       3.81227039370877      -0.59575968283226
H        -0.66903530626043       4.54282874053243      -1.07755635573135
H        -1.52891510330719       5.13293896405783       0.39463667866290
H        -4.03719429024758      -1.83073148312270       0.57306148557702
H        -3.14379787853481      -3.32105218192121       1.07807358048187
H        -4.18369491480199      -3.34552749193924      -0.39703387205700
N        -2.28134394712547      -5.21819839132118       4.36443646694411
S        -1.71059520210190      -5.94605433407065       3.01004853768353
S        -2.40198530549829      -5.98611223999448       5.80912994799750
C        -3.07019517482147      -6.67414724438522       2.11794304608709
C        -0.99317790086037      -5.56348724630023       6.81267142802901
O        -1.05116806578328      -4.91743034736728       2.13510980659921
O        -0.71413223685780      -7.01493724135058       3.36373092312659
O        -2.45542588022397      -7.47676698300297       5.62035601226030
O        -3.64800844725860      -5.52513893287272       6.51130789691180
F        -2.60738094608251      -7.24201896686236       0.94630119761742
F        -4.00122794695689      -5.69932301835054       1.81644986063664
F        -3.66673169685819      -7.64834081716156       2.89438178737179
F        -1.07329800495557      -6.21616783781582       8.02817988076573
F        -0.97295949197668      -4.19856192672255       7.02709883407186
F         0.16629805755118      -5.94252185779171       6.16447114257478
