40
C12H22F3NO2 optimized with DFTB in AMS.
N        -0.46650497970893      -0.25323273408468       0.01739386333341
C        -1.28697425728297       0.47594648097922      -1.01144133732201
C        -0.79707760392343      -1.72168407326661      -0.04565774557230
C         0.97444976243560      -0.06249084946095      -0.36859263853652
C        -2.78455869095978       0.22985514491060      -0.87967534933660
C        -2.28742634312632      -2.02080558500326       0.05961820599204
C        -0.73229457894121       0.25923409151092       1.40700078832251
C        -3.09113248265129      -1.26113526759656      -0.99076623061055
C         1.99114575583488      -0.69204646502824       0.58317679297082
C        -0.34445811458215       1.70660745689274       1.65364303658563
C         3.40204361475874      -0.44791290633893       0.04816638219388
H        -0.93941936402660       0.12875403050075      -1.98977965826147
H        -1.05768825049678       1.53917561534365      -0.92032832874395
H        -0.26664031840503      -2.21044633818354       0.77328420138097
H        -0.40303080799128      -2.09086660742089      -0.99787305472937
H         1.14836171422090       1.01408470596593      -0.43883418381266
H         1.09364913065762      -0.49113929845490      -1.36778729928846
H        -3.27396275677652       0.77695367242408      -1.68984030327496
H        -3.16547165690433       0.61559098277946       0.06794632520418
H        -2.65663704521741      -1.76737325033595       1.05487590446178
H        -2.40736398853783      -3.09829839441645      -0.08075317830434
H        -1.80270123015271       0.13996685065816       1.59432045669180
H        -0.19761032680143      -0.39521920833347       2.09646903210587
H        -4.15642597250801      -1.42646361244698      -0.81831204241015
H        -2.84104186516675      -1.62171428255051      -1.99512559055811
H         1.90693696721038      -0.25404394897722       1.57983747156081
H         1.82106657054181      -1.76787539986611       0.66805872629951
H        -0.63207667551275       1.92972341128847       2.68123080884817
H         0.72657340960409       1.87920018749203       1.55373278029483
H        -0.87961792955411       2.39083496334922       0.99701486676388
H         4.13064159986502      -0.89092192291378       0.72585709122485
H         3.52338159086849      -0.89872619587006      -0.93734009377857
H         3.60323866249739       0.62098891750686      -0.02909154833751
C        -3.87225474188659      -0.40198771389650       3.27520338754839
O        -3.67298029271645      -0.13505239898453       2.08353967183519
O        -4.83742448508571      -0.38081028509528       3.99793010528683
C        -2.46680020234408      -0.88897017843205       3.99768832954351
F        -1.59262012415086       0.14997371400699       4.11541954533940
F        -1.80881448200559      -1.80182565284142       3.21743104311137
F        -2.57761827467805      -1.43690226341028       5.20741103567792
