41
C11H24BF4N optimized with ADF in AMS.
N        -0.11294314432716      -0.35420516074083       0.42765327239848
C        -0.41410551533832      -0.88465071207509      -0.96665992295500
C        -1.44364219984461      -0.52261024899778       1.12388014347093
C         0.96312393824427      -1.17256185572179       1.10279807817098
C        -1.80224330626846      -0.34276769492890      -1.29091295114681
C        -2.49208712715412      -0.12276449655728       0.08274727030158
C         0.27029762314480       1.11450263183932       0.33332045665716
C         2.32280162003687      -1.06285067522962       0.44143948365166
C         0.57868700323365       1.79551531141919       1.65337135548981
C         3.32320554570592      -2.02489837068190       1.08157529268993
C         1.03958044256865       3.22672107375111       1.36323963113336
C         4.69265342091128      -1.92394221242125       0.41402802548858
H         0.37209211539971      -0.57256238796230      -1.66796557402609
H        -0.41838220460668      -1.98148791543654      -0.86671747777686
H        -1.51997654850009      -1.58940156334313       1.38363119114684
H        -1.45341860230008       0.06968334851660       2.04681664500400
H         0.59756806946778      -2.21276789328205       1.07819526048053
H         0.99392943851238      -0.85379790998826       2.15640656742755
H        -1.71479157138157       0.59330624760744      -1.86070442863626
H        -2.34761283918713      -1.06007827819133      -1.92000472895169
H        -3.39300051380348      -0.74178233813488       0.20291431381775
H        -2.79894025524449       0.92519441930779       0.21153725672170
H         1.13576451601682       1.17146902523425      -0.34002975497209
H        -0.55826472348920       1.61777779332322      -0.18319223974792
H         2.24696085684980      -1.27007586332475      -0.63871580526788
H         2.71008233562201      -0.03400571939195       0.51131727424942
H        -0.30111515089868       1.81759643879252       2.31999486451949
H         1.38348476561501       1.26403722660170       2.18798657561201
H         3.41595174231333      -1.80649619302130       2.16184516281815
H         2.94607376410177      -3.06133849701517       1.00089942954474
H         1.91314482093059       3.21936738367507       0.69423349352199
H         0.24487995069198       3.80462055656501       0.86697524948923
H         1.31024721418365       3.74455175263232       2.29433905048835
H         5.41305038872032      -2.61575562588627       0.87464726130152
H         4.62023499112068      -2.16001978588279      -0.65895289826171
H         5.09337438048865      -0.90165844345612       0.49759913520897
B         2.09065581556162       1.12176255293133      -2.71046561816758
F         0.71752854978271       1.53947393293910      -2.64579365382062
F         2.10220447444798      -0.31932108620370      -2.74686778769935
F         2.73661894696163       1.53388201582202      -1.48935086171459
F         2.73456334741018       1.65882239751700      -3.82081438136025
