34
C8H15F2N3O4S2 optimized with ADF in AMS.
N         0.17815726548792      -0.13206116685362       0.20470583243019
N         2.31062692713362      -0.54677907277420       0.19501022330883
C        -1.16746833515779       0.28293090123752       0.63301918599869
C        -1.36173561856859       1.79753263697528       0.57900700510769
C         1.27441750867249      -0.20002645617802       0.97146489258361
C         0.53151133502914      -0.40778714364608      -1.09785216364335
C         3.70100074118936      -0.70149099952311       0.67247465811727
C         1.86857890362641      -0.67521878791617      -1.10291908238348
C        -0.76402450439085       2.52403609499746       1.77795635800135
C         4.71278815775222      -0.50227547322009      -0.43912549055829
H        -1.32304171763694      -0.11018776663303       1.65008305587910
H        -1.86681384032807      -0.24001603995354      -0.03618143850312
H        -0.92590609501323       2.17363783483799      -0.36188031713631
H        -2.44975218127843       1.97918088463856       0.52856370287135
H         1.33420215245107       0.04729226675023       2.02300963549124
H        -0.17929656724097      -0.33812934571393      -1.91114414765946
H         3.83531447116592       0.05784384577485       1.45584012038287
H         3.78648481581519      -1.70480756631491       1.11984522389139
H         2.53764722945525      -0.88691326134903      -1.92445381692100
H         0.31629393620542       2.34594056423290       1.86646183152330
H        -1.25812636298610       2.21231708432079       2.71356919232913
H        -0.89596639749850       3.61104754472930       1.67220711552897
H         4.66117609523038      -1.30156088393467      -1.19378186748445
H         5.71849284317622      -0.52827236806270       0.00438204426565
H         4.58140243594417       0.47823139381579      -0.91886253071028
N         1.89137557535360       2.42867450788564      -0.26523375027548
S         3.09520082430108       2.86458238462904       0.70251501468756
S         1.83760700551521       2.90670735851977      -1.80184891571503
F         2.78737785291753       4.44383307194270       1.01991589208026
F         2.95117227516936       1.88813705176689      -2.52220765066589
O         2.85518279652219       2.19334998754497       1.97768600038421
O         4.42876999662176       2.84825787532200       0.13134540909684
O         2.33840433893984       4.23324993848196      -2.08604946984748
O         0.56666641932410       2.44653134006946      -2.33810370405588
