32
C10H15F3N2O2 optimized with ADF in AMS.
H         0.41691818581901      -0.33930122436960      -5.25215514606005
H        -0.97378160817245      -1.30548657921451      -4.64042671073744
H         0.49309151897900      -2.14928836347958      -5.21958425934381
C         0.11895320129241      -1.25146153631811      -4.71504796895837
H         3.05152994977821      -1.39393155353498      -1.11536642741386
H         2.37793797703478      -2.53173349463059      -3.56608656178927
H        -0.54901740860030       0.35014439517929      -2.52186035921274
N         0.69619604173744      -1.18685858348728      -3.37900637521466
C         0.34546512424644      -0.25211449962680      -2.47998616472205
N         1.22836915419150      -0.29429880494280      -1.47037654493836
C         2.21415548723936      -1.21543457504920      -1.77705992205228
C         1.88418868798713      -1.77136780119824      -2.97471290274544
C         1.25211761994392       0.66719478599498      -0.36500197299305
H         2.15822192066984       0.45122026872428       0.22064821856279
H         1.36155842760496       1.66711794017236      -0.81474365556328
C         0.00691548903497       0.57660827742283       0.50494439284345
H        -0.06832966240569      -0.44053939029670       0.93085813970381
H        -0.88687478301035       0.73847651632040      -0.12197900066294
C         0.02818924999346       1.62194486800318       1.61747981981265
H         0.93524160351995       1.48504727563958       2.23452432745804
H         0.10367024000748       2.62474958777550       1.16061533497825
C        -1.21334760960023       1.54783584729246       2.50160031516264
H        -1.29658788609413       0.56157897918037       2.98637997515603
H        -2.12622137409322       1.70992833543820       1.90649032325990
H        -1.18699783729872       2.31212705694594       3.29221678675363
C         0.84007115756033       2.77933629549356      -3.62703089611026
O         1.19729076294018       1.56331729138413      -3.71664170988900
O         1.47648082478250       3.82806645165789      -3.76699900291375
C        -0.67161338377863       2.96693404121569      -3.21735499474048
F        -1.19078923730373       4.17646965161688      -3.51642988453766
F        -0.81905757077437       2.79801183278934      -1.84049759239754
F        -1.51671156403103       2.02211528790152      -3.78036553479490
