22
C4H12BF4N optimized with ForceField in AMS.
N        -0.00134417612574      -0.00070563581838       0.00005120600446
C        -0.91269423104767      -1.11375305948378       0.34483474759383
C         0.65692062545324       0.49677286352753       1.22826789899194
C        -0.77443696655656       1.09555541310745      -0.62369118072362
C         1.02464809922733      -0.48125213384240      -0.95081367317331
H        -0.35538775511085      -1.95297153074688       0.81844465992194
H        -1.69904504289711      -0.77889590712691       1.05791575111842
H        -1.41998868808152      -1.50924970349833      -0.56365202811006
H         1.35050375324453       1.33621079240366       0.99723677733248
H        -0.09500342810572       0.86594448041240       1.96152683759649
H         1.24704081238581      -0.30924968591312       1.71943861409647
H        -0.11142338276208       1.94938238635975      -0.88961152768601
H        -1.27636718382764       0.74930695360852      -1.55497584291429
H        -1.55936946873072       1.47424791157996       0.06864646017350
H         1.71659297595692       0.34131323926906      -1.23701997672489
H         1.62866243664704      -1.30318523376229      -0.50461771113311
H         0.55531822369838      -0.86743664952380      -1.88308691338668
B         5.40500433092072      -0.04241401787263      -0.00958225135580
F         5.71352458391015      -0.07503956824772       1.37600989099040
F         5.57870640889270      -1.33797585075658      -0.56475297679736
F         6.26791862666639       0.87443785383204      -0.66620941307329
F         4.05927254344240       0.37051582699244      -0.18279959874150
