44
C12H26BF4N optimized with ForceField in AMS.
N         0.97919917049295      -0.30886200152798      -0.00466065361194
C         2.04650176455352       0.07044850755430      -0.98198876924203
C         1.65176575520986      -1.22871692872067       0.96422255608403
C         0.48937277956392       0.90577307806407       0.72585048085665
C        -0.11964679303943      -1.02832684303980      -0.72814352179640
C         3.25400212202148      -0.81234181339360      -0.73229044337683
C         3.14819677757628      -1.15177872233460       0.72735693924858
C        -0.25029020922524       1.93836251378317      -0.15891620842668
C        -1.30485567686153      -1.46739599939704       0.16489693651355
C        -0.56899307933164       3.20662138882303       0.64320068480611
C        -2.30389728889664      -2.30717974264141      -0.64178570560015
C        -1.30522001438577       4.23483942519696      -0.21072408768855
C        -3.48809682213959      -2.74170414558955       0.21670733748529
H         2.38595766807871       1.12379388915143      -0.85135161101585
H         1.72617478111397      -0.02266906046532      -2.04514179803981
H         1.35571420429700      -2.29231864979303       0.81174957339859
H         1.42421897569362      -0.99240192314823       2.02912883024216
H        -0.18734878320874       0.61415831302743       1.55953846981406
H         1.35196529771064       1.41612827712036       1.21483392419655
H        -0.51999241393254      -0.39893045482681      -1.55378772727560
H         0.29685683466452      -1.93452299190163      -1.22712976618955
H         3.17836799327244      -1.74009302398583      -1.34227553307484
H         4.20391396573168      -0.28622770312816      -0.96641189139959
H         3.58725933306446      -0.33234700349713       1.33945196959154
H         3.65730987119020      -2.11173061428866       0.96366743283503
H         0.36827181076199       2.21435411579471      -1.03892565614695
H        -1.20686947821726       1.51062955544983      -0.52556183777179
H        -0.94269096240568      -2.06617229179251       1.02733838431726
H        -1.83879351197019      -0.57673576858845       0.55705174656797
H         0.37397632209205       3.66198879283178       1.01799398300481
H        -1.20446409173153       2.94503422528199       1.51778170746203
H        -2.68365598868155      -1.71156983982212      -1.50105344961240
H        -1.79814824203839      -3.21422483304642      -1.03989687584310
H        -2.26205641906314       3.81280807045046      -0.58553470994725
H        -0.67594133977878       4.54279470878681      -1.07276344029522
H        -1.53010479203474       5.13289419357773       0.40273423364420
H        -4.02397063950248      -1.85373968662191       0.61483409185320
H        -3.14115402706541      -3.37256639035995       1.06254070686706
H        -4.19528630661302      -3.33469248305245      -0.40114753410405
B         7.01902472911171       1.13247681311351       0.20805098330858
F         8.43868487179220       1.17268113462560       0.20234717128165
F         6.51912542904036       1.89255466823506      -0.88290858928497
F         6.53413825160436       1.67807844454606       1.42634661763347
F         6.58603028128537      -0.21428080185099       0.08723413593115
