52
C14H18F18NP optimized with DFTB in AMS.
N        -0.05041368868055       1.07801905732575       0.59175117916334
C        -0.96716802278594       0.54962085253388      -0.47003589111833
C        -0.55041237948195       0.41240443173405       1.83740435634060
C        -2.34396159202524       0.47407422875834       0.18871276967001
C        -2.06861809385927       0.39802161770148       1.69871859027615
C         1.36992521781433       0.70645818957090       0.28001897781511
C        -0.19895735914049       2.55637053272795       0.67634481851179
C         2.37302308931353       1.08605179162937       1.36902605882225
C         3.76058409613246       0.57694219971033       0.98505213322840
H        -0.61326638135821      -0.44524557493047      -0.74962739341720
H        -0.92972980976290       1.20360254685197      -1.34150567824469
H        -0.20738992569251       0.95927586018285       2.71072634445341
H        -0.14243238807098      -0.60034096422416       1.85580462643668
H        -2.87962170468872      -0.40659967814739      -0.16924489401219
H        -2.93982301115752       1.35571379586142      -0.05450658749130
H        -2.50861312415999       1.25057093713648       2.21820308449557
H        -2.47552425236641      -0.51199519297257       2.14100363299612
H         1.62260616069483       1.19625608990987      -0.66487620250720
H         1.38417667058911      -0.37643968836199       0.12555216628925
H         0.08094189181959       2.99262012927036      -0.28090509482514
H        -1.23126096172971       2.80121062975085       0.91094103606810
H         0.44629450749922       2.94319787786502       1.45796132768136
H         2.41142813011377       2.16952612280253       1.49286687114084
H         2.07637863661353       0.64598119108423       2.32298351959640
H         4.47184417447644       0.85923671453785       1.75973558098444
H         3.76136498668641      -0.50950380077605       0.88932320691634
H         4.08378678101878       1.01272163692576       0.03888453927651
P         0.85934863460892       3.00499340005027       5.08102150004027
F         2.41471910232970       2.46731600618173       5.33855057586561
F         0.64422417955106       3.49521157826217       6.64663295430466
F         0.98005513589691       2.53061021887182       3.41421033056679
C         1.73230910473638       4.70164003306837       4.63999811531516
C         0.42540586050288       1.11744316201991       5.57320949920868
C        -1.04805099953970       3.52858158271752       4.61435832722432
C         2.61633792989399       4.76247330063673       3.36148762745477
C        -0.96074648522290       0.43329890657654       5.78275050331928
C        -1.52600313818763       4.64360310921153       3.64251362894675
F         2.53125784308253       5.03645575402867       5.66257388517734
F         0.81795689347716       5.68467634297591       4.51618614101638
F         1.07666778676230       0.92330447584429       6.72915602575832
F         1.03204782905721       0.33772238204521       4.64020443561705
F        -1.77415564933463       3.67922160407707       5.73038092956564
F        -1.49590503945393       2.38731326851772       4.00106283866900
F         3.26400282283778       5.92369271888839       3.29769576439852
F         1.87808611861410       4.65767824377559       2.24632332458749
F         3.52007167295677       3.78758849579473       3.32772867139101
F        -0.80372597810642      -0.65185925718283       6.54145393478994
F        -1.85833952632175       1.20927995357358       6.36862128613685
F        -1.46550586820657       0.00982368879703       4.61169595405989
F        -1.65081596613429       5.82220561962634       4.22366171983899
F        -2.72289114531713       4.31184662373979       3.13644762742106
F        -0.69634333589439       4.75934133464340       2.59566543017958
