58
C16H22F18NP optimized with ADF in AMS.
N         0.25628250420008       0.08783626395361       0.86858845254147
C        -1.17893995688023       0.30779150045467       0.44603207806855
C         0.59276388851738       1.40724622465550       1.54640022107711
C         1.13563264408648      -0.17067929835258      -0.33248410302721
C        -1.83056939778739       1.04967807560124       1.61429670056584
C        -0.66120778461251       1.76562118944787       2.34189984339827
C         0.34924001969830      -1.03465744451743       1.89602697524921
C         2.60419931732281      -0.36108075761277      -0.00567990970012
C         0.11979226988569      -2.42673745433508       1.34841502164845
C         3.42284980282480      -0.56931374202095      -1.28123187920948
C         4.90039155483527      -0.78434231253717      -0.96030669009603
H        -1.63612634100826      -0.65585292094026       0.19086145921807
H        -1.13959274784812       0.93412041707507      -0.45785341407506
H         1.49526248382052       1.28835472968003       2.15655055137671
H         0.77814294700714       2.12267296553584       0.73066203017360
H         0.71759473745609      -1.05359878453065      -0.84058511308548
H         0.99204330166061       0.69784031608183      -0.99659803618547
H        -2.58566896256874       1.75352267813868       1.23617531966099
H        -2.34762438849347       0.35209302652497       2.28858107707047
H        -0.56457200795731       1.42577842944414       3.38178201976822
H        -0.79059940309177       2.85649303541621       2.36849253672670
H         1.34145690166591      -0.94450334240879       2.34778688450618
H        -0.38391551892593      -0.79072500890989       2.67519600221462
H         2.99537477468669       0.51184113786176       0.53969453175342
H         2.74885544642007      -1.22504919121504       0.66004107615229
H         0.18140118611900      -3.11803257435923       2.20273320814581
H         0.89954586876162      -2.73197275345244       0.63700429549540
H        -0.86914070449683      -2.56000796370811       0.88510175934119
H         3.02772011854426      -1.43945888077567      -1.83726498158682
H         3.30375378450450       0.30831715124968      -1.94292662796751
H         5.03906137353895      -1.68151661936841      -0.33838818313283
H         5.30707876599451       0.06567727614448      -0.39244702695768
H         5.49378700477191      -0.90466205446980      -1.87872898024393
P         3.97077952624729      -0.06878133706800       4.38581427410604
F         4.36653883247600       1.54674614868127       4.30946683562671
F         3.03513793824920       0.04358869737636       2.96435968714918
F         4.86426095385855      -0.27930994083839       5.75076560128959
C         5.53477354205432      -0.31043265605731       3.19163538521426
C         2.40833240923285       0.71198721706686       5.45812771383414
C         3.34471884692071      -2.00541870760788       4.54072246494497
C         6.94436433991135      -0.38264645016275       3.84361586339408
C         1.14836485976352       0.03965250820163       6.09733156933304
C         3.75401877782212      -3.24029450308215       3.67733917771395
F         5.59022851413893       0.74654064776003       2.30393754738683
F         5.43006005744680      -1.43545881213659       2.40034636049727
F         1.83381438161293       1.69727539408313       4.65090456003837
F         2.99466521042622       1.35539013940372       6.52021146252715
F         1.96174721765359      -1.97731216751934       4.34907165376027
F         3.56077823784488      -2.42419121654053       5.82883141291265
F         7.89541997493851      -0.45328083681537       2.86552342442091
F         7.06911873050149      -1.49001634879663       4.61422297922256
F         7.20438629594102       0.70932917126004       4.59158880441805
F         0.52147508244860       0.94699012339536       6.89952846746852
F         0.22422908243584      -0.32564697351270       5.15499970792360
F         1.44867776730386      -1.03261691747581       6.85210420449776
F         3.44253209656288      -3.06402326547149       2.36056640016892
F         3.03407008369719      -4.32350163891369       4.09646425251974
F         5.05520318845930      -3.55597970548106       3.80067985234648
