53
C15H17F18N2P optimized with ADF in AMS.
N         1.52631786975120      -1.96386133301309      -0.66988236669369
N         0.18463800223453      -2.39853753893932       0.97699267385472
C         2.75548818354498      -1.63147326888911      -1.40853743639431
C         2.98072054144938      -0.12609908998371      -1.50894096006561
C         3.21686790836057       0.55392117098778      -0.16123154066905
C         1.44928513028072      -2.08849089311511       0.66061407070346
C         0.27986220680531      -2.18776232967896      -1.21596869883396
C        -0.56574814538984      -2.46229928659693      -0.17935472278301
C        -0.31480898389881      -2.59239977603737       2.34691479908163
C         3.56107549223257       2.03296973305943      -0.31738295072541
C        -0.71089304970461      -1.27300045604357       2.98860321594531
H         3.58224614476151      -2.12094403142710      -0.87735004947194
H         2.65849432446359      -2.09807789284949      -2.39954461001977
H         2.13262088334926       0.34739257004337      -2.03686316949871
H         3.86990256619754       0.01178156807124      -2.14933176312837
H         2.31350473241604       0.46033290003128       0.46770642199385
H         4.02892572407484       0.03178315423210       0.37235144173085
H         2.28781265203156      -1.99871710794152       1.34452835603963
H         0.11076918135350      -2.15978598537403      -2.28498994995699
H        -1.16461332884447      -3.28632905725799       2.27349897256135
H         0.48340978153801      -3.09441250120896       2.90955638719175
H        -1.61756226806280      -2.71995977667473      -0.16541479614514
H         2.74683787019426       2.58168106213783      -0.81761274402358
H         4.47423052722961       2.15944286402705      -0.92010075789272
H         3.73824242259848       2.50215653553601       0.66102291146977
H         0.15649149485611      -0.60231255846024       3.06409062223135
H        -1.08126516927361      -1.46150527032000       4.00598308912339
H        -1.50360576471433      -0.77127053257699       2.41438764033435
P         5.19494936472814      -3.30365991417106       2.36049068590274
F         6.28930502256909      -2.13629635923511       2.79621884191932
F         4.19277845792732      -2.07575474020505       1.69811354978278
F         6.09749487706552      -4.54505143957556       2.97552264903582
C         6.19438324751382      -3.45072490000691       0.64822601832865
C         4.43024978044002      -3.00655223445188       4.17736455001524
C         3.76074402493827      -4.57598436067100       1.74222707589098
C         7.69329519484636      -2.99985134105100       0.64190945497505
C         3.66145490933921      -1.68216087597129       4.46090990455992
C         3.84704461854660      -6.10689230710520       2.01960220604108
F         5.62201365424615      -2.70144276709891      -0.37627519123673
F         6.21576646005943      -4.75385195591585       0.21523506981036
F         5.47609625741788      -2.99841650259071       5.06987633297427
F         3.57923809729663      -4.00641974802795       4.60146199756486
F         3.58967870317725      -4.45235610708518       0.37165915219236
F         2.53113713587025      -4.19961004579191       2.28171937751980
F         8.25969349376978      -3.39166898040376      -0.53938081179281
F         8.39753372464238      -3.56377995886483       1.64253991601045
F         7.81549903596002      -1.65391730153395       0.71082931806698
F         3.34597183337082      -1.60603277407576       5.78115577023693
F         4.37071362031419      -0.58502647423215       4.13791696778739
F         2.47126673014394      -1.63473905955287       3.77532671956321
F         2.72716483187090      -6.70750494074310       1.50492495917994
F         3.87854870866456      -6.36396242968716       3.34310701677116
F         4.91641072484636      -6.67939271908972       1.43742858194109
