61
C17H24F18NP optimized with ForceField in AMS.
N        -0.82812359894389      -0.20257853443915       0.02743232568475
C        -1.16087378311301      -1.24644578396655      -0.99082148499694
C        -1.96746408907228      -0.23100454403265       0.99507497291698
C         0.44015462978413      -0.56254007709388       0.74223832813063
C        -2.58641162048008      -1.70728088233275      -0.75230789972694
C        -2.79437594334890      -1.47037937229139       0.71605269757899
C        -0.74943517046381       1.13796600498521      -0.63949718023921
C         1.70853505260083      -0.53083858439246      -0.14441566144589
C        -0.38873337711057       2.30554336652675       0.30982356321847
C         2.92007813460432      -1.08057546378045       0.61777094143425
C        -0.48537803308768       3.64645124312078      -0.41260969022162
C         4.18312597316007      -1.02304890864079      -0.23677554418242
H        -1.05215542509224      -0.88932335725154      -2.04058548491527
H        -0.51232268937822      -2.14805122927601      -0.89886486661153
H        -1.64232704206366      -0.22545500380812       2.06074059773125
H        -2.64755940396342       0.64323073507638       0.86992141158712
H         0.34114592198713      -1.58254300523303       1.18205960762334
H         0.60573921017983       0.11471168112501       1.60929879086077
H        -3.29078496819008      -1.07755426097652      -1.34021894894468
H        -2.72875240204456      -2.77759355162297      -1.01824225937261
H        -2.39570242977287      -2.33036003071377       1.29887412726511
H        -3.86891960005356      -1.31776564693007       0.95858026546619
H        -0.00783519447800       1.11900926648545      -1.46865187138005
H        -1.72618147772922       1.36837383656801      -1.12596919299851
H         1.55809581607364      -1.13361239508071      -1.06442965015959
H         1.93533140366875       0.51292879885464      -0.44581138053011
H        -1.06923191522088       2.32912037303136       1.18603878138109
H         0.65098007382345       2.19847841295607       0.68101879638277
H         3.08418243960725      -0.48279633950468       1.54084207479931
H         2.73250578019483      -2.13664930154623       0.91021853184266
H         0.21546591477410       3.67039341105004      -1.27435981547319
H        -1.52125299580799       3.81642925742278      -0.77556732747063
H        -0.21597574549279       4.46600514138107       0.28666024933113
H         5.04141726680765      -1.42504762089302       0.34188435427213
H         4.05580908071071      -1.63490361000255      -1.15506859268073
H         4.40855807621129       0.02647564907209      -0.52254844445089
P         5.62129501135666       6.12562941912923      -2.51911379632844
F         4.08170017646170       6.33808803462179      -3.25886951023208
F         6.80526705721706       5.58530967713091      -3.64906450723645
F         4.71739980619547       6.93461871886065      -1.29905029745981
C         5.93850784371149       7.71517013331021      -3.58373973269813
C         4.83307367899505       4.36238759566377      -2.64676932702173
C         6.79122296799729       5.96626710835117      -0.98868456621739
C         5.04056303396178       8.95332739405272      -3.31398211805257
C         5.71502116046814       3.16532766682589      -2.23348149177122
C         7.54518919501541       7.23585128372246      -0.54650468441763
F         5.76928841505540       7.39975336321166      -4.92651937813786
F         7.25062786938601       8.11722275574281      -3.43362262144882
F         4.45490415131491       4.11379265377089      -3.96314584312680
F         3.69524511157644       4.32176609883777      -1.85306678657608
F         7.76758034465690       5.02837161320328      -1.27320529457163
F         6.07512915100962       5.49615959012855       0.10371098326667
F         5.52444294555923      10.01946472029309      -4.05171271728473
F         5.04340971338895       9.32817565420273      -1.98776818026251
F         3.73504864580861       8.73031295809826      -3.71315351887676
F         5.04782685425554       1.99418269657790      -2.54847482688823
F         6.91780370301948       3.15971010705567      -2.91478873002854
F         5.94702413449835       3.15244043982858      -0.87279497847082
F         8.56536279995652       7.53302739145192      -1.43004232019130
F         8.12290509342146       7.00581084288054       0.68981581259812
F         6.70668441753226       8.32076874710121      -0.42150465967138
