33
C7H16F2N2O4S2 optimized with DFTB in AMS.
N         0.79128472393661       0.71249030997330       0.06941559608171
C         0.10168547268088       1.47429015544634      -1.02673696798657
C         0.15343934446301      -0.63249687997828       0.22862317400368
C        -1.39899116765931       1.59595606664872      -0.80308209626751
C        -1.34293919254337      -0.53473398370446       0.50328166307183
C        -2.04612226686017       0.22546708267364      -0.62041766720935
C         0.77563971787428       1.46400636542763       1.35628337211497
C         2.21369540614565       0.51698380383052      -0.32757836746320
H         0.30541357563176       0.93712882492174      -1.95735429526255
H         0.55725121100042       2.46383886324996      -1.07581513746672
H         0.66809936179773      -1.14541626702251       1.04469790211477
H         0.32817120495169      -1.18238502135739      -0.70074106711956
H        -1.81793498504563       2.09247846385804      -1.68168065744199
H        -1.60235288024813       2.23218732846181       0.06078717907013
H        -1.52215943835356      -0.04308189137309       1.46281290634151
H        -1.73470644887824      -1.55298211983096       0.57113644216849
H        -3.10412562854402       0.34433016774280      -0.37639105360116
H        -1.97283595072877      -0.34795984196828      -1.55056242302515
H        -0.24041215519439       1.75056037236835       1.60873362883911
H         1.19145042677923       0.82797760107112       2.13555589298827
H         1.38469668430641       2.35746443289851       1.24383111633445
H         2.25237949550255      -0.05898603066862      -1.25003722961752
H         2.66990498788685       1.49397231719065      -0.47507841599653
H         2.73103212873869      -0.01621095091006       0.46782119124999
N         1.90022672479193       5.65240315179534       0.21411498792379
S         0.60204318140685       5.14935245341680       0.97578415702010
S         2.85207579108347       4.54236424814127      -0.38406545673364
F         1.17737685949414       4.40170638217429       2.30957603045161
F         1.99189146677258       3.88644378704144      -1.63106134911177
O        -0.10408373037287       6.27812610837826       1.46893009401964
O        -0.14478415766685       4.09727442707491       0.33304754255675
O         3.09521274452500       3.38442985437921       0.43907432239790
O         3.95649469252558       5.17083003144898      -1.01743717114549
