34
C10H21NO2 optimized with ForceField in AMS.
N         0.01100906994368      -0.01075684021761      -0.00453926993310
C         0.92585584058172      -0.86559208213229      -0.82168640970015
C         0.91617800873184       0.83742787327223       0.83060572304381
C         2.33727445617552      -0.33318808818967      -0.66854657880447
C         2.32987653404874       0.30704347032367       0.69093116086365
C        -0.83656036967418      -0.86625028870779       0.88842043175245
C        -0.81202913663016       0.85075487171114      -0.91458164570655
C        -1.82515357580294      -1.78372112939291       0.14537189248941
C        -1.80978043408786       1.77469269241170      -0.19208480975080
H         0.64994300422319      -0.90095786134927      -1.90055678987532
H         0.94201503711047      -1.92229245620292      -0.46809169448891
H         0.62786127374727       0.86274852700541       1.90640487238544
H         0.93669675753028       1.89703985629871       0.48648766848796
H         2.53870227346971       0.43421635243932      -1.44851570055571
H         3.09615375049211      -1.14322550211295      -0.73449789054412
H         2.52474365094452      -0.46029704738736       1.47260247309507
H         3.08711048132879       1.11797983568063       0.76495057321130
H        -0.18638439355838      -1.51043085370221       1.52433253340488
H        -1.41760571447540      -0.24023264355135       1.60032739005562
H        -0.14444964895159       1.49038139273203      -1.53685908469490
H        -1.38277281769205       0.22889332829320      -1.63845468803420
H        -2.30363167098885      -2.46865792339773       0.87663274961328
H        -2.63297120097738      -1.19703335056727      -0.33655016847734
H        -1.31639498427948      -2.40285346319969      -0.62084404977495
H        -2.26749154065756       2.46338957346529      -0.93304474574612
H        -2.63195819251394       1.19321205640926       0.27150711790131
H        -1.31380342025866       2.38976814840582       0.58559541143759
C         2.26805705524695       5.01505251225227       3.29605307432975
C         1.40768846260135       3.81314130176138       3.52527437302649
O         1.71105476181078       3.00172349137744       4.38463029484288
O         0.40031019356917       3.64110018218194       2.85819325707711
H         2.29687462207957       5.63335287474917       4.21777736949399
H         3.29897731009213       4.69260568426582       3.03910832437106
H         1.86644078152067       5.63134569507462       2.46348564390360
