34
C10H22ClN optimized with DFTB in AMS.
N        -0.46617233748654       0.27507125417038       0.19019109255528
C        -1.53655687963690       1.15487048083914      -0.38552370228651
C        -0.75846232239283      -1.16053334214201      -0.14075500345564
C         0.82650005680446       0.69000029658132      -0.46709934159549
C        -2.94361568934512       0.75804368586126       0.05079954937927
C        -2.14167666591537      -1.58991224200560       0.32273322049920
C        -3.22740195128346      -0.70526748479580      -0.28468359178735
C        -0.36210776185155       0.47762908706722       1.66336474906556
C         2.07235532180164      -0.05268899710007       0.00935402269846
C         3.29754868886625       0.47756440270077      -0.74270495891756
C         4.56121400227257      -0.25128498361720      -0.29009141764776
H        -1.45625073133078       1.08545881841789      -1.47415713918429
H        -1.31533558521101       2.18050880445504      -0.07967949607320
H        -0.00102974373118      -1.76997256665923       0.36698606210205
H        -0.66631239150151      -1.26467692543202      -1.22532948733853
H         0.93754499410034       1.76268271050764      -0.28052949041275
H         0.69268241078242       0.53973923692746      -1.54256935784889
H        -3.64497543216420       1.40868846365307      -0.47866565185464
H        -3.07686046357400       0.93068437071306       1.12184470236201
H        -2.19771280729331      -1.56665565967059       1.41377978734277
H        -2.28423922845949      -2.62590408483852       0.00601194499803
H        -4.20638654381673      -0.98810188929856       0.10912070423642
H        -3.24613312038245      -0.83518289184868      -1.37195058807474
H        -1.34614554825489       0.38737628367147       2.11417141838727
H         0.29181601832088      -0.29884860809850       2.07319726631655
H         0.03975851746933       1.47117441862315       1.85246178505616
H         1.97295420890790      -1.12415447457772      -0.17009895403714
H         2.21642655704023       0.08969210506536       1.08161765644481
H         3.40650246450452       1.55235428095763      -0.55783318453732
H         3.15768400850286       0.33612158602663      -1.82039948385832
H         4.47360608118636      -1.32029698460752      -0.48485315866834
H         4.72133203980960      -0.10636992991042       0.77852605137805
H         5.42690844665023       0.13316272224078      -0.82948820021548
Cl        1.15806056131177      -2.30276612057683       2.14512610567204
