44
C12H24F3NO3S optimized with DFTB in AMS.
N         2.45393635730096       0.27977411837493      -0.18333450876758
C         2.79964942832727      -0.81913559616726       0.77826163710388
C         3.49514396451065       0.16816276111754      -1.26223189451735
C         1.10430225791461       0.05832440492045      -0.79791066993315
C         3.39371571335687      -1.94789105954634      -0.06002696326005
C         3.76826031217543      -1.32328845839515      -1.41131814053258
C         2.52928755202347       1.61065342782931       0.47527679201212
C        -0.07391051194359       0.25141574140052       0.15578769521937
C        -1.37060605653160      -0.18038421275794      -0.53986889333425
C        -2.57827646250520       0.01145197789249       0.38261541849886
C        -3.87585194691586      -0.42244581639353      -0.30668234304203
C        -5.08334353601784      -0.22469353785484       0.60779413963039
H         1.90730928544305      -1.11630245258863       1.32834718783388
H         3.53341001688678      -0.41788506281387       1.48013356726289
H         4.38693098765486       0.69652868305551      -0.92154522224911
H         3.12204872095262       0.63966196958016      -2.17186133862354
H         1.10085516082060      -0.95901438372517      -1.19719449422607
H         1.01279772663132       0.75913897171035      -1.63239553210642
H         2.67980359438994      -2.76430285864796      -0.18956378252854
H         4.28250676037001      -2.33327564223704       0.44125896566132
H         4.82481377793548      -1.47944614023581      -1.63237609221453
H         3.17384719333606      -1.75324913125859      -2.22163367613944
H         1.88927004766440       1.61120903842018       1.35424022688227
H         3.55927579028769       1.79915556516879       0.77429657657823
H         2.20381771382542       2.37075689346914      -0.23270964802163
H         0.06044470190486      -0.34060853347662       1.06461927191653
H        -0.15520084864529       1.30234784163512       0.44538094059400
H        -1.29431931847933      -1.23354008565937      -0.83062961446958
H        -1.50764984165745       0.40969633913376      -1.45224575400168
H        -2.65114616593999       1.06545217093906       0.67123541667669
H        -2.43436972250731      -0.57566933818651       1.29590270110676
H        -4.01291846241233       0.16084864604899      -1.22345036689108
H        -3.80140016209085      -1.47780368075885      -0.58974849218761
H        -5.18712740632828       0.82583522986113       0.88226228063929
H        -5.99285113824040      -0.54226203796762       0.09793820238952
H        -4.97254095511692      -0.81253420817185       1.51986937289026
S         5.92754561455063       0.66213713092233       1.19714265567039
O         5.07359788905158       0.63337837017159       2.37677924458347
O         5.69945467957920       1.82215077162249       0.34365203610513
O         5.97291759836865      -0.59873991987219       0.47031124361037
C         7.63886946150296       0.88482649797373       1.85708960089856
F         7.96630191498267      -0.13567181860639       2.64083075358765
F         7.72613865601142       2.00234083325922       2.56559993529165
F         8.51531939507277       0.94763292331472       0.86262102440272
