35
C9H18F3NO3S optimized with ADF in AMS.
N         1.15329081607243      -0.34836708614456      -0.08454613347185
C         0.86002761080472       1.09100581732559      -0.47211161757908
C        -0.04867942273604      -1.20748372305298      -0.41117805240114
C        -0.42481156077659       1.63122107128036       0.13467050222913
C        -1.33118471507445      -0.70472869467218       0.23317164219288
C         2.34714857652978      -0.79568603241759      -0.93156196823295
C        -1.62306071031157       0.73714077726282      -0.18207156720892
C         1.49585300224666      -0.43317174060543       1.37400711786963
C         2.96260902279098      -2.11596737452246      -0.52804391525989
H         0.79928085213005       1.09191417461830      -1.57260037342046
H         1.73709983604971       1.67964609996846      -0.17518268232396
H         0.19548363085892      -2.23115609960976      -0.09724025641775
H        -0.14223168849138      -1.19071689340164      -1.50921256461620
H        -0.57183592279778       2.64454327954794      -0.27348453061676
H        -0.31371651224208       1.75730997580068       1.22419652645422
H        -1.26857335862435      -0.78701921830796       1.33117981773765
H        -2.14589566669306      -1.37702273858873      -0.08253549185026
H         1.96793211173603      -0.81481687000136      -1.96543455527209
H         3.11675281497196      -0.01161689803945      -0.85133527977242
H        -2.52670432973577       1.10864220759363       0.32546628360508
H        -1.82782365233090       0.76768004719547      -1.26806053523088
H         0.73332875353705       0.09216142703102       1.95576282954751
H         1.51889162233052      -1.49071512370028       1.66262915454753
H         2.49693822431360       0.00538205145884       1.52279485868086
H         3.76151359645346      -2.31958407872127      -1.25644196212826
H         3.45613037516124      -2.03253339153341       0.44987301228629
H         2.25842417255959      -2.96109204988347      -0.54785862004363
S         5.33882204237082       0.79844455273178       0.60372982165985
O         6.67240235462110       1.11786753712421       1.10223806986302
O         4.48541988936619      -0.01204581344395       1.50926661873412
O         5.22472446212842       0.40804179204485      -0.81555264129241
C         4.42723660257913       2.49348588237340       0.63329237404045
F         5.25748964280697       3.53181957780328       0.86093072213583
F         3.44748213485080       2.52983499656264       1.59816768160950
F         3.78215778434382       2.73750829252322      -0.55828410395463
