28
C10H12F3NO2 optimized with ForceField in AMS.
N        -0.48511428668920       0.00443512744227      -0.37037177273204
C         0.94177209660287      -0.00777346400072      -0.71622560877766
C         1.79357464024840      -0.07507212661508       0.55461807330145
C         3.28268099223015      -0.03342977968748       0.22570051441168
C        -1.13220606071687       1.19771729419271      -0.19814301708736
C        -1.15567109268073      -1.17756557030162      -0.21137870502684
C        -2.48921178101048       1.22710017797537       0.13276325806716
C        -2.51327838885309      -1.18371990555706       0.11911389743898
C        -3.18179887530730       0.02757451877270       0.28992944433954
H         1.17018851542691      -0.87931167988143      -1.36999750157483
H         1.20389048828009       0.90544557366569      -1.29632883212043
H         1.56868932034294      -1.01498583945649       1.10372800947332
H         1.54468419638325       0.78358309433115       1.21430500922017
H         3.56337229667624      -0.90567458357233      -0.40235302887630
H         3.87173942171462      -0.06768943216693       1.16625996460183
H         3.53278841284911       0.90426350790936      -0.31508581082289
H        -0.60009753903658       2.13467030125309      -0.31324512612834
H        -0.64217623013638      -2.12328687091657      -0.33902603608082
H        -2.99833310247808       2.17283009148947       0.26559712723790
H        -3.04143521740412      -2.12048615165530       0.24127261476236
H        -4.23393456492141       0.03664307442587       0.54438076525879
C         0.54211481578000       3.40578514486070       3.70693039457533
O        -0.01635060665542       2.38242774267652       3.34454957958955
O         0.32833476974208       3.84529145493100       4.82539531209490
C         1.48735978453201       4.12365850064746       2.79018235906977
F         1.04345491339644       5.41768469659923       2.58958873427487
F         1.56422309175770       3.48010965170247       1.56731272896045
F         2.74632298712686       4.15852291623592       3.36075390004946
