31
C9H19NO2 optimized with ForceField in AMS.
N         0.84102455687937       0.00786995507987      -0.03081716371671
C         0.06804630317739       1.23387178343350      -0.38684863092328
C         0.08793274445638      -1.22622479481267      -0.40141360661190
C        -1.36039497025733       1.24369628906008       0.18564641923612
C        -1.33992673344950      -1.26573023272703       0.17142171632236
C        -2.11872823072888      -0.01493460294168      -0.22854412384056
C         1.19373354062922       0.00236174926256       1.41283553850748
C         2.11011927287416       0.02336868202979      -0.79946646339453
H        -0.01729478654067       1.32666322212026      -1.49457505092575
H         0.59724167130070       2.14753265282625      -0.03196653042252
H         0.63220575513589      -2.13548258524455      -0.05837023979858
H         0.00275228118329      -1.30693094960572      -1.51009765515669
H        -1.89992389062204       2.13428675934490      -0.20299765473161
H        -1.34197155941886       1.33156814487304       1.29201783572840
H        -1.31940826147804      -1.36549326562317       1.27675226616475
H        -1.86532368943279      -2.16047010455270      -0.22698646330436
H        -3.11612627479317      -0.02575802568406       0.26113696739499
H        -2.27653137006907      -0.00989072567318      -1.32978414244438
H         0.29948665612211      -0.00608220275575       2.06637971741734
H         1.79922175855511      -0.89488218579095       1.67236926609771
H         1.78922212432224       0.90350136713948       1.68131860388709
H         1.92075352689810       0.01623534509541      -1.89654263853558
H         2.70611381723728       0.93529748231248      -0.57008648350128
H         2.73541657865963      -0.86670544092043      -0.56085650781820
C         5.03408756746355       0.29999566786611       1.87564970381217
C         4.80688660895653       1.60059656013747       2.57907065229431
O         5.33961505224552       2.61753593736708       2.16598465313069
O         4.09088837896161       1.64973403282819       3.56631104529701
H         4.69551807552604       0.38243020211985       0.82262814624812
H         6.11620076059674       0.05228215146499       1.89006181888463
H         4.46957658620950      -0.51851014692944       2.37144045390273
