55
C17H18F18NP optimized with ADF in AMS.
N         1.77687095460881       1.93054764044566      -1.38891899691207
C        -1.62573479340291       0.25030482105101      -0.83856336380919
C        -0.18002461963425       0.65231000416229      -0.54955512381689
C        -2.20223964204021      -0.67291758694124       0.23355273438768
C         0.36902549845651       1.54428341039377      -1.65534311764201
C        -3.64885483971217      -1.07787514583816      -0.04680441385350
C        -4.22249405396999      -1.99597205901674       1.02981924975504
C         2.75539724546940       1.02149596629270      -1.59293632653327
C         2.06715697123063       3.17033374220197      -0.94483167694658
C         4.07269460947095       1.33521925979085      -1.33011335797233
C         3.37184586383143       3.53105016544663      -0.66820900182427
C         4.39061146456996       2.60545401881542      -0.86002364924420
H        -1.67568055113262      -0.25131491680714      -1.82236575173483
H        -2.25113885308507       1.15810447718496      -0.91852525726909
H        -0.11651227003630       1.18181181880035       0.41798239606920
H         0.44495605724881      -0.25436207979127      -0.46115972050029
H        -1.57668940408126      -1.58201408826659       0.30946804074542
H        -2.14640200768438      -0.17203370577299       1.21838387521499
H        -0.20472712018749       2.47458145839221      -1.75636811668485
H         0.35448848841975       1.04644070787040      -2.63388234504119
H        -4.26940045467574      -0.16763902386465      -0.13024275982163
H        -3.69955717530377      -1.57928812918548      -1.03011912469677
H        -4.20737443642892      -1.50434265435195       2.01572621177282
H        -5.26453785535661      -2.27378290558786       0.80884596187997
H        -3.63633614778556      -2.92529832141060       1.10905685382464
H         2.44355316461905       0.06192370502881      -1.99843398041914
H         1.22907235175708       3.85659697034814      -0.84997281122165
H         4.84355395508824       0.59290710624089      -1.53065219241794
H         3.58127831333524       4.54735860410268      -0.33691564472681
H         5.42958316922026       2.88148495959653      -0.67656143007312
P         3.02430835862922       3.56152270001415      -5.26233786741067
F         3.20133719095287       5.18571177204726      -4.95717494699583
F         2.77573673836839       3.76008757990885      -6.88505515019223
F         3.26858693854347       3.26104483476296      -3.62018997650791
C         4.96343453734363       3.60955099141093      -5.60177965020035
C         1.03319449176899       3.94692097357205      -4.98214984290233
C         2.70002005891190       1.55428081922180      -5.42583750355644
C         5.95041537945578       3.83421565182205      -4.41288246441475
C        -0.19013681486434       3.20745122264082      -5.63065688474651
C         3.73083461856314       0.37747573114064      -5.36976962346236
F         5.22521454098831       4.64764070028476      -6.46522739119853
F         5.40958336299649       2.46550093076961      -6.23239677743518
F         0.83610418496392       5.23291261187392      -5.42607729802223
F         0.74317306528259       3.95664284694553      -3.61208653276143
F         1.96334743805081       1.29049042215234      -6.55320014105998
F         1.87535589666579       1.25667051731907      -4.32879393781135
F         7.21663514003503       3.95541868839469      -4.89828219898106
F         5.96147999092399       2.78602212654487      -3.54048028076772
F         5.66826259241439       4.95409845091652      -3.70878837466252
F        -1.31769633360993       3.94135455248135      -5.38202657435741
F        -0.05529369536926       3.09940201385213      -6.96533823477655
F        -0.42753295791905       1.97413613661042      -5.11140333499824
F         4.37254277739195       0.18564552149202      -6.53433305260269
F         3.05780258151307      -0.78777442431476      -5.09567850017364
F         4.63746972568996       0.54259464070543      -4.37052629489025
