40
C10H15F6N3O4S2 optimized with ADF in AMS.
N         0.45301049923631      -1.07021917187538      -0.59228628738756
N         2.08785877386729       0.35183139704032      -0.73960540346874
C        -0.58746940791366      -1.92966674133909      -0.02338811370692
C        -1.95905267351725      -1.26257286244472      -0.07779169323858
C         1.33387368456862      -0.35203128718229       0.11264462490137
C         0.65384579609773      -0.82296331286808      -1.93564553989398
C         3.27685647607003       1.12503767512368      -0.32535642795128
C         1.68800342624549       0.06101764369981      -2.02618737697430
C        -2.01942094151894       0.04658524579074       0.70291017923117
C         3.79175561421713       2.02778118758143      -1.42594385220234
H        -0.28578180511668      -2.14946954007954       1.01119591629338
H        -0.56519540494065      -2.87809604365882      -0.57885543291745
H        -2.23787799321041      -1.09099209556633      -1.13213521056645
H        -2.68773702745326      -1.98556888094357       0.32653313303851
H         1.45612959813821      -0.38141789902734       1.18681394959793
H         0.07447936293040      -1.31857753408525      -2.70396413972617
H         2.97902469184956       1.70474555872264       0.56101122800774
H         4.03053385270816       0.38133355700083      -0.03348976222430
H         2.19810480739352       0.45760235741672      -2.89204514207806
H        -1.31324039783806       0.78806497734942       0.29697505633702
H        -1.77704091198779      -0.11477903911839       1.76573613913921
H        -3.02580017278535       0.48668432692045       0.65105776667347
H         4.16868237755468       1.43781079565455      -2.27308503113173
H         4.63825466554205       2.60827610174094      -1.03282965177829
H         3.02067622090715       2.73464859870168      -1.77011834411513
N         5.08462896221989      -3.29541205649971      -0.40575730030447
S         3.95473368673468      -3.21497340334307       0.72275698123708
S         5.27405485794902      -2.24292651349661      -1.60415351320762
C         2.54581033377269      -4.21198597326231      -0.03801096062254
C         6.59334083147732      -1.07409039062335      -0.91896233580956
O         4.35855140774134      -4.02050918320198       1.86186996755324
O         3.35024027130740      -1.89657845945382       0.96279353645732
O         4.14380236024335      -1.34627992569538      -1.86966138479515
O         5.93506468087608      -2.90518986429556      -2.71546758271797
F         1.49127592183020      -4.24143470548327       0.83255136103366
F         2.91570063750331      -5.48002125421876      -0.29506317937733
F         2.10057745741780      -3.65001119693105      -1.19661207634434
F         6.72472380272287      -0.00785357114876      -1.75711958736049
F         7.78988778024412      -1.68022934349418      -0.80675015388306
F         6.23573968571566      -0.59243577250658       0.30479576438271
