37
C11H23NO2 optimized with ADF in AMS.
C         3.37708018505289      -1.51042193505754       0.89575259218466
C         2.88503060816153      -0.09054974915377       0.61339084574195
H         1.25609946510510      -1.40051090057504      -1.10099341964503
H         0.08560741444144      -1.86156184866321       0.17877370766632
H         2.44728152775921      -3.25169121411860      -0.13062831316356
H         1.81291761645172      -2.93670532906566       1.49245198414318
H         3.68896860279714      -1.60693878248500       1.94660244526433
H         4.25488165412987      -1.73627106903158       0.27356056225607
H         3.17855742693061       0.65352608841910       1.39915926769334
H         3.15541938402267       0.24735238325996      -0.39828265511390
H        -0.16430711119021      -0.49577711761870       2.07121310759875
C         0.88513499690842      -0.17609874828553       2.04833347653143
H         1.50815731399685      -0.85878454601448       2.63680283030964
H         1.02802156286849       0.86415247810047       2.40031476830393
C         0.79343169424887       0.99197129502418      -0.12820007182675
H         1.19544486702761       1.85413535538563       0.44370200539398
H         1.24144204312346       0.95248534439125      -1.13514885343500
H        -1.17438627859584       0.97199410631608       0.78666148318999
H        -3.40866287763883      -0.07527546619142      -2.12489715958225
C        -1.43309595254309       0.19289446105919      -1.23435407493757
H        -0.92882653449947       0.29359486693252      -2.21363719572811
H        -1.35666107187897      -0.87034514425123      -0.95386623678482
C        -2.90904321178468       0.56018019928021      -1.37878940310780
H        -3.02404165082224       1.60942663463155      -1.69388517346431
N         1.36407461724355      -0.19743966324059       0.62169819534834
C         1.11527315065726      -1.53979045118710      -0.01794995929911
C         2.18489140186329      -2.45214793042114       0.57710215924158
H        -3.44120943382780       0.44056838363967      -0.42138032015243
C        -0.72277297787551       1.08592618471567      -0.21355870070933
H        -0.91795128249427       2.13977563898354      -0.48797668905931
C         3.27918644671290       3.89111896888522       3.55864906723949
C         2.78204435751177       2.64275173829019       2.82254565105180
O         1.69789041264243       2.76399358725985       2.16224867835996
O         3.49560074710431       1.59797736745992       2.91397196787655
H         3.76949706886432       4.55682192913853       2.83036514695073
H         2.43762846120000       4.44718426437362       3.99578410589966
H         4.01132843802518       3.62599856421422       4.33328798036360
