26
C6H14BF4N optimized with ForceField in AMS.
N         0.58379514807519      -0.00269535721422      -0.01223525895597
C        -0.30961156817683       1.06499363658846      -0.53991582500070
C        -0.30544833586191      -1.06602527884039       0.53098092408906
C        -1.72451246220304       0.74822756624224      -0.08981956449854
C        -1.72494035257903      -0.74689083270957       0.09816892069371
C         1.45627685708220       0.53642787152210       1.05743795653008
C         1.43652433989977      -0.54583644213637      -1.09610620230072
H        -0.30745624451915       1.09707645337218      -1.65500503296855
H        -0.02187924726353       2.08532796800150      -0.19453168110159
H        -0.28923004745939      -1.09368989115240       1.64637587127375
H        -0.02488301511598      -2.08820029258166       0.18541060646158
H        -2.47842658328899       1.06639858894153      -0.84228739353382
H        -1.93122296694688       1.24852430929429       0.88213460394205
H        -2.47027012146029      -1.06367251241055       0.85969891912950
H        -1.94421609452677      -1.24700489685421      -0.87112570572222
H         2.15286904558545       1.30591337105652       0.65545181268405
H         0.84917100122154       1.01342558000785       1.85739841176070
H         2.06414335522990      -0.27376011966235       1.51919774470211
H         0.81533558240873      -1.00432807554004      -1.89774570951740
H         2.05324980394946       0.25903393989691      -1.55576226394023
H         2.12476837458185      -1.32934178068109      -0.70653694875932
B         1.32709889928759       0.10831303947416       5.16326132431617
F         2.38281485955808       0.64806022869896       5.94400549065974
F         1.85196963792292      -0.84645862941128       4.25291922877071
F         0.69123065609480       1.15315955815357       4.44360727369033
F         0.38149675060432      -0.52046255205614       6.01500894029551
