29
C9H17ClN2 optimized with ADF in AMS.
N         0.18951291805743      -1.30149380135006       0.15234343839786
N        -1.83136298651974      -0.53059398774068      -0.11325623696083
C         1.56688627121396      -1.48679599792154       0.62417349476485
C         2.55136299775896      -0.43616223755827       0.10040799698671
C         2.73326714338470       0.75656271043136       1.03937860550470
C        -0.64142002292005      -0.28795290389577       0.47840066066316
C        -0.43749706702472      -2.10353171591085      -0.78770087751124
C        -1.69852114826248      -1.62101822459468      -0.95366794473812
C        -2.99322277668938       0.36025674657956      -0.05073176062377
C         3.66844112330254       1.80153442157741       0.43889009182954
C        -3.18108269026611       1.15314846553901      -1.33654778429718
H         1.54396350238915      -1.49482283270849       1.72744640595682
H         1.84858053449824      -2.49928993910134       0.29965408120927
H         2.18858808029214      -0.07200138584400      -0.87670802575988
H         3.52832984846948      -0.92772731651857      -0.05833321214166
H         1.75253813046510       1.23393980215647       1.20435871388437
H         3.12125645877242       0.39981116836720       2.01264682482141
H        -0.47028254408463       0.43201590166448       1.26485772421269
H         0.06727250394892      -2.94812527512050      -1.23891786373535
H        -3.86916251849986      -0.26493281137139       0.18883780603981
H        -2.81646885536707       1.03775113180179       0.79739531051635
H        -2.50776621033125      -1.95751299907767      -1.58790456546562
H         3.22557902944990       2.19719317338883      -0.48864188364108
H         4.65518811586855       1.36767774963751       0.20599206336301
H         3.82065539877607       2.64628715899359       1.12782620436602
H        -2.26112297274357       1.72819649114549      -1.53379602421746
H        -4.03460264543765       1.83807152793666      -1.21911265098385
H        -3.38677530193039       0.48772390500032      -2.18825219903339
Cl        0.13261422262934       1.87402664129416      -0.82166238000715
