29
C9H13F3N2O2 optimized with ForceField in AMS.
N         0.07394617422029      -0.63066405730107      -0.44502888146838
N        -1.99118289981813       0.11848741750854      -0.10624225857692
C         1.45235878569942      -0.71875784427682      -0.92408051814953
C         2.44612198974792      -0.38506384246450       0.19506555617999
C        -0.83304744323313       0.31285268639372      -0.76558579128146
C        -0.53299706024736      -1.44942217432610       0.43794823091241
C        -1.81532456642266      -0.98467397391307       0.64680504762086
C         2.27767700037325       1.04426082817705       0.70777208924136
C        -3.18126793840210       0.95805203924502      -0.15359086211649
H         1.60735527876958      -0.02139541285512      -1.77701504400193
H         1.64579057684187      -1.74864595139430      -1.29495286929007
H         2.32021427050936      -1.09804032273419       1.03805021393050
H         3.47737057241402      -0.49922690404140      -0.19815112924736
H        -0.64607647006150       1.13430205682332      -1.44548420703879
H        -0.07490359168941      -2.31067893253731       0.90623546263911
H        -2.55624385794921      -1.41125239228281       1.31000219483828
H         1.29146873540321       1.16549147470019       1.20380329133197
H         2.35900494230669       1.76901064823706      -0.13021824365078
H         3.07291439738670       1.26760721529881       1.44975609408150
H        -3.01801256811480       1.82733156677763      -0.82619848574518
H        -4.04130249664806       0.36627852639469      -0.53077489415851
H        -3.41253502795872       1.33398167444769       0.86544129396264
C         6.20846560872875      -3.58191681270174      -0.55186556786267
O         6.19811641056019      -3.89805707615954       0.62720228059145
O         6.24041120499907      -4.45058365977124      -1.40836490911614
C         6.18184221334403      -2.13788059817049      -0.95321064200887
F         7.31815644670630      -1.84034204202666      -1.68209890911449
F         6.13723437881387      -1.32327127997150       0.16505517151582
F         5.06634165452054      -1.89782833767585      -1.73364488541835
