79
C23H36F18NP optimized with ForceField in AMS.
N        -0.52192005978013       1.77837019799728      -0.20216000223484
C        -1.38478958084802       2.31749182369565      -1.30376696122176
C        -0.20258279969825       2.89613045570888       0.74595996841651
C        -1.19981617451914       0.66332461557649       0.54816264990575
C         0.75591400045957       1.31609795219343      -0.84742537369225
C        -2.66753292904179       3.01183133759638      -0.81561149145206
C        -1.44322588846529       3.63831859138114       1.28460358074830
C        -2.32729908118242       4.14346365622471       0.14849176103988
C        -1.50857525029833      -0.61217131243695      -0.27393803731087
C         1.78107908544088       0.63436637369111       0.09369048065204
C        -2.18671177066600      -1.66961385597247       0.60779072137699
C         3.05807947575689       0.26339756473035      -0.67363357808163
C        -2.47936226870009      -2.94911687257407      -0.18510826198572
C         4.06800897963081      -0.44392861747899       0.23940061597876
C        -3.18106169979909      -3.99058647431183       0.69423062686040
C         5.36200720234553      -0.76759615855755      -0.51661005870483
C        -3.45708389242305      -5.27375517333413      -0.08371936223461
C         6.34893844610387      -1.51945734449809       0.37077200238404
H        -0.81730303356472       3.07203058475240      -1.89775945758733
H        -1.66039543593181       1.52683834867890      -2.03169477602673
H         0.35613043323712       2.52179168860016       1.63036555061661
H         0.44944852629989       3.65286756066319       0.25152019365727
H        -0.58940213836238       0.37155237724496       1.43078545760329
H        -2.15924589313914       1.00457448963206       0.98270319977188
H         0.53582433597515       0.61718880639515      -1.68501120827293
H         1.27007503933362       2.18081836058857      -1.32800573173271
H        -3.20094506761994       3.43882503522901      -1.69251150757038
H        -3.36271037010989       2.28934929763116      -0.34082393196676
H        -2.03087998496053       2.98856380950402       1.96601011781996
H        -1.10661270874759       4.50918054228168       1.88792826926099
H        -3.26470477296183       4.56913084284263       0.56757612909846
H        -1.79763736208137       4.95295043561295      -0.40090639462274
H        -2.19492948821144      -0.37706224567812      -1.11214875490172
H        -0.57712913857046      -1.05148968306516      -0.68471684798933
H         1.35642950628337      -0.29545275995599       0.52425514243283
H         2.06285867669863       1.31551864247465       0.92182927830327
H        -3.14078973474145      -1.25866116156839       1.00615879465048
H        -1.52305748838874      -1.91536117579023       1.46611778449765
H         3.52012129902161       1.18726339591875      -1.08649561382133
H         2.79834454364836      -0.40962951717277      -1.52066277482902
H        -3.12918853997622      -2.70469932446936      -1.05432245974194
H        -1.52338587172358      -3.37186654412305      -0.56581136691319
H         4.30585700098481       0.21097015609806       1.10648900588434
H         3.61726935357136      -1.38655206619876       0.62150537346480
H        -2.54280571183100      -4.23286459338752       1.57184157689267
H        -4.14599340615033      -3.57960060587695       1.06371079452060
H         5.13326258157771      -1.39490944400309      -1.40190116947041
H         5.83678994514279       0.17363447052350      -0.86961206886691
H        -3.96877753128749      -6.00548576767386       0.57646300311608
H        -2.50472795448329      -5.72160727328266      -0.43934423430014
H        -4.11223565219418      -5.06328073282642      -0.95582359750849
H         6.63184553561922      -0.89675500127645       1.24598519561030
H         5.90077721792074      -2.47178717818887       0.72640213890522
H         7.26521613467635      -1.75511518895937      -0.21061156024343
P         6.07303918575575      -3.84537181487608      -4.78177398051390
F         7.77291294276339      -3.77481799954756      -4.51794641634279
F         5.69891002888178      -3.93736797931482      -6.46168040367949
F         6.19888602636400      -4.02815091227611      -3.07526901133958
C         6.59557508448439      -5.66097912170084      -5.21835261582667
C         6.59090844926917      -2.01043431564374      -5.11370241336545
C         4.22485399285005      -3.69443264385780      -4.23352802366074
C         7.32295790923696      -6.48511588380881      -4.12152483109499
C         5.50324627494397      -1.05645420164111      -5.65007851832721
C         3.51108306296711      -4.98838407136711      -3.79295004767712
F         7.45193797063484      -5.63458448010646      -6.31259674508706
F         5.48186725954837      -6.37879390637122      -5.60480584363261
F         7.61624510536125      -1.97971111365567      -6.05469050133237
F         7.06929922737021      -1.45849365025061      -3.93334337441331
F         3.48869084327896      -3.19274780771139      -5.29176854362929
F         4.11604753782850      -2.78404436044802      -3.19440816316789
F         7.43551269586441      -7.79489259064546      -4.55402947118505
F         6.63692061856427      -6.49669414791857      -2.92629484163566
F         8.60313918030072      -6.01023004797714      -3.89821887694179
F         6.09679092692101       0.15058033647670      -5.97680098507410
F         4.90809837755284      -1.55492621831784      -6.79339410608437
F         4.54054913724520      -0.79615566378237      -4.69592068410230
F         3.19829026602512      -5.77377938322999      -4.88629080275720
F         2.32102037380958      -4.65387520112723      -3.17048961155804
F         4.26104177570880      -5.71674465100692      -2.89662896245631
