49
C13H21F6N3O4S2 optimized with ADF in AMS.
N        -0.52167833964265      -0.16320725975858      -0.55666960873884
N        -1.37603382194459      -2.13583138025687      -0.86557726610756
C         1.41431024437730       1.27546870806302       0.06453782073107
C         2.43992423487636       0.17678539970780      -0.18147601626107
C         0.17353992222494       1.11246225771699      -0.80322118731714
C         3.73488996338183       0.37637781979739       0.59968977310941
C         4.73428493253440      -0.75161702808663       0.35135448251620
C        -0.64611998307250      -1.16813849315960      -1.43428449334384
C        -1.16515651370188      -0.51391325140730       0.61203080206313
C        -1.70122884474235      -1.75225593613729       0.41502284484383
C        -1.85052454279542      -3.35259392971526      -1.54230102022844
C         6.04102122567865      -0.55773854151756       1.11386351301667
C        -3.22685306895596      -3.13383564507900      -2.15013742502452
H         1.83550101068313       2.27093571240195      -0.16594814024267
H         1.12393011880504       1.30200105698560       1.13076390282337
H         2.67208321746753       0.12005585466248      -1.26189072500145
H         2.00804845324603      -0.80053232485711       0.08337266141254
H        -0.56205888592456       1.91482766294873      -0.63504098146381
H         0.44576433891390       1.11413259025295      -1.86921654384775
H         3.50638218863928       0.43265848747202       1.68188984415711
H         4.19327598805913       1.34649712915321       0.32557148768607
H         4.93318796604797      -0.83198827710925      -0.73173328412800
H         4.26849984471307      -1.70855556623027       0.63617324002733
H        -0.20407389365646      -1.20553349514211      -2.42205594923283
H        -1.16171439369871       0.12728695410712       1.48333387743780
H        -2.24179008047040      -2.40718891451565       1.08611579988594
H        -1.09954215782553      -3.61334947410303      -2.29624230888082
H        -1.83073908635463      -4.15813363184197      -0.79595889064804
H         5.86419969721832      -0.52141375849907       2.20186589312567
H         6.53463075770214       0.38510288452654       0.82439298357851
H         6.74293872116341      -1.38100406128738       0.91453311453795
H        -3.96930154596252      -2.87239578440729      -1.38161174889505
H        -3.55585102739004      -4.05692082377997      -2.64835319243609
H        -3.20275288628651      -2.32926595930227      -2.90089620392530
N         2.28447651408358      -2.92093833283791      -1.18083836600777
S         1.51623236687974      -3.88220122890604      -0.14718952183873
S         3.01245361182027      -3.41608192669903      -2.53260686743713
C         2.83817488339980      -4.91095787166248       0.74999545812925
C         1.74623144737727      -3.01423518368130      -3.87243749647538
O         0.99652434694959      -2.99968024756904       0.90147063477545
O         0.62154398220437      -4.88642203933095      -0.72518563693193
O         3.21541591824992      -4.85112427253096      -2.66605804016357
O         4.07729203586190      -2.47028684845020      -2.83417312667086
F         2.31662202355441      -5.32683223762986       1.93165007093843
F         3.94257085289013      -4.17171527068767       1.00497317042536
F         3.19199884722975      -5.99182944364223       0.03373678339232
F         2.26314052278981      -3.27429110067030      -5.08795987141999
F         1.38638821955015      -1.68680587789292      -3.84710258574869
F         0.60122265275158      -3.73909219981144      -3.73375160099616
