34
C8H18F6NP optimized with ADF in AMS.
N        -0.35686425658652       0.15941048707425      -0.12411945296988
C        -1.35487409037959       0.42652865085707      -1.24254158489580
C        -0.78074439599087      -1.20388568679153       0.44790617493628
C        -2.65826330239407      -0.15449557769494      -0.72901880139947
C        -2.20875014727733      -1.46186884883018      -0.05763986117846
C         1.05128422620395       0.13276302287108      -0.69231715324364
C        -0.48574282682916       1.21730542007331       0.92095910828229
C         2.14383688642035      -0.17175946532425       0.31704493698144
C         3.46141434132737      -0.37990590267081      -0.43324732086561
H        -0.99539010261349      -0.14355378644406      -2.10960993344216
H        -1.35913468076959       1.50353473629030      -1.46071557804450
H        -0.69825577049243      -1.13835656844496       1.54014623597258
H        -0.07895436666159      -1.95250806079283       0.06136410965888
H        -3.35989533425067      -0.32982140883705      -1.55715045101709
H        -3.15058620398147       0.52815311680280      -0.01771685146428
H        -2.88118085917373      -1.76688678956361       0.75586679609447
H        -2.16620121183744      -2.27194979618506      -0.79967643945952
H         1.20471184759597       1.11810823299564      -1.16322431002359
H         1.03159427662895      -0.64176769221507      -1.47119721234557
H        -0.19728660982217       2.18366934439566       0.48625114974037
H        -1.52502766874636       1.25461440072543       1.26966526850896
H         0.17423432388590       0.97309780211243       1.76078842526703
H         2.25321012420961       0.64557649971219       1.05023372890059
H         1.89695772447287      -1.09578691364733       0.86483282416271
H         4.27656875572466      -0.60191795283654       0.27061685473512
H         3.36701874325476      -1.22408970995426      -1.13173697932154
H         3.74077268136485       0.51964681712925      -1.00307085677664
P         0.69596205634484      -3.55342777552753      -2.39929826547739
F         1.37464338229976      -2.95969927846135      -0.96771617402613
F        -0.23794852200827      -2.13181831577577      -2.48194567408168
F         1.88017712211243      -2.76808412031232      -3.23643871748431
F         0.00007502551195      -4.07523157674621      -3.78195802142271
F         1.60705366377619      -4.90047538801998      -2.27409320115304
F        -0.51326676861970      -4.22926274986380      -1.49279884064774
