46
C14H29NO2 optimized with ADF in AMS.
N         0.04003711209138       0.27895990201762      -0.38226039366484
C        -1.17453264098560      -0.34595925935528      -1.03166248057369
C        -0.38054032371400       1.06706257385135       0.85307203128625
C         1.06046869126599      -0.76356033139563       0.04537595613105
C         0.63728333123502       1.24457165447725      -1.39415091244906
C        -1.98122955272501      -1.21038551062826      -0.07762213814451
C        -1.21837674901301       0.24386326433777       1.81735929483850
C        -2.42576449456894      -0.40531304767656       1.14356860710114
C         1.63807199409014      -1.61316053470205      -1.07001014417526
C         1.93058657420195       1.91900912453349      -0.97914790786504
C         2.77387240254212      -2.47005796031034      -0.49568556622577
C         2.35799990337386       2.92324955785458      -2.04720829049996
C         3.46683090909785      -3.29999195028408      -1.57078421986722
H        -0.81863500945344      -0.91365833395181      -1.90218528764830
H        -1.78995728125639       0.49373025215813      -1.39530667049163
H        -0.96133854310708       1.92381252713422       0.47217003045820
H         0.56457720450797       1.39904602908649       1.34002621496375
H         0.56328709114662      -1.39534828875099       0.79145714511980
H         1.88920016182192      -0.21644698029800       0.54872493078621
H        -0.15331689404915       1.99207608606691      -1.57761307949741
H         0.76967746524108       0.66968400363976      -2.32477521646417
H        -1.38998354435982      -2.08871287064813       0.23166154494704
H        -2.84984009547802      -1.59944112466633      -0.63483914446956
H        -1.53653995851954       0.92822797456822       2.62139822923149
H        -0.58696560217816      -0.51497989576609       2.30789294078379
H        -3.13196683611182       0.38120176939708       0.81692213306065
H        -2.96895799407115      -1.05104175324813       1.85169610077919
H         2.06527567888981      -0.97236397372271      -1.86059860348448
H         0.88191373031486      -2.26634899436673      -1.54408259762020
H         1.81073134108831       2.42031977419975      -0.00579168382026
H         2.72641587647236       1.17769656526267      -0.80292926615100
H         2.36987920262894      -3.13451901075282       0.29025157836598
H         3.49003943675652      -1.79429014880438       0.00154363283192
H         3.29634896830634       3.40968430410359      -1.74484902806121
H         2.53304446008286       2.43788615617768      -3.02175430606815
H         1.60307619289507       3.71353555535427      -2.19274239753759
H         3.90196004791164      -2.64907632320093      -2.34663203043506
H         2.76506736807446      -3.99180059962218      -2.06554534515847
H         4.28489149622279      -3.89795190035357      -1.14221302918993
C         4.43893021648935       1.27220941940577       3.08110469132579
C         3.34718388516136       1.02521951118336       2.03459832226910
O         2.22311744493597       1.59022631848402       2.22156223694292
O         3.66556134604306       0.27263315305232       1.06174525360841
H         4.05923952508427       1.86138777861692       3.92614263729133
H         4.83173793331383       0.30794579685819       3.43824581770008
H         5.28129608390346       1.80352528068357       2.61112738684014
