54
C16H36ClN optimized with ForceField in AMS.
N        -0.00172313154195      -0.00427988493960      -0.00214342734889
C         0.84489705261452      -1.02747733268129       0.71043044906667
C        -0.85522649602589       0.70474269052830       1.01736796153179
C        -0.84720022911392      -0.71336802980901      -1.02846629750070
C         0.85093341786571       1.01852469421001      -0.70796376912123
C         1.91186076231557      -0.46635199421289       1.68612153225167
C        -1.92252431081651       1.67753333699171       0.45236909068093
C        -1.92027582745194      -1.68554020060856      -0.47312968942078
C         1.91694396395989       0.45582697261680      -1.68359900077068
C         2.68856103692807      -1.61040999994492       2.35108443729698
C        -2.71726689732476       2.32462133334660       1.59412638361955
C        -2.69739407235751      -2.33912905579984      -1.62375509721604
C         2.70367501161034       1.59743019473654      -2.34002809791995
C         3.73221315882700      -1.07774172163948       3.32901066340882
C        -3.76204958656674       3.30060521607499       1.06056946188048
C        -3.74496357286632      -3.31938364759726      -1.10359087179742
C         3.75370783643018       1.06228983717847      -3.30960627183994
H         1.35636375060459      -1.69052263086000      -0.02223521425664
H         0.20134927569115      -1.70248942053560       1.31432184259808
H        -0.21727306939434       1.31109068942837       1.69523684875637
H        -1.36677424907163      -0.03048083525548       1.67754472628818
H        -0.20380538325624      -1.32111436595436      -1.69977299941735
H        -1.35164008821126       0.02150039140605      -1.69446826957017
H         1.36312613647074       1.67640971164044       0.02910049590127
H         0.21235601399668       1.69853596491992      -1.31129267524518
H         1.42994016664947       0.12672471137187       2.48925579116080
H         2.63952402338606       0.17955628457467       1.15417912478047
H        -2.63859330229063       1.14725287445636      -0.20748291478812
H        -1.43878546964477       2.49002347998244      -0.12667565435406
H        -2.64612959466104      -1.15376960351941       0.17486500217872
H        -1.44281584554695      -2.49410234422328       0.11641269675814
H         1.43385361979889      -0.12927987020413      -2.49191069007921
H         2.63772055257063      -0.19798389535556      -1.15261251053946
H         3.20050250367233      -2.21842034214661       1.57369294756448
H         1.98498576081346      -2.26963162111995       2.90492095405491
H        -2.02518248202988       2.87612966752455       2.26726415242376
H        -3.23050164119240       1.53686927051735       2.18761272673519
H        -1.99392203981900      -2.88882426642485      -2.28651686323441
H        -3.20608462558929      -1.55501177693481      -2.22590065794093
H         3.21164884692249       2.20053248380165      -1.55721403569937
H         2.00759447880949       2.26071982118486      -2.89823500766096
H         3.24281641613940      -0.48099805052602       4.12820765294730
H         4.47017172678429      -0.44149543058769       2.79579116009379
H         4.26919328101184      -1.92799793467167       3.79985048445355
H        -4.48948347407034       2.76902097342379       0.41099207608148
H        -3.27220350745915       4.10968936172595       0.47773520150128
H        -4.31115428185973       3.75812958031447       1.91033682046688
H        -4.48462237336909      -2.79049424038202      -0.46581327790329
H        -3.25982740364600      -4.12554413446817      -0.51285070504254
H        -4.27926595367626      -3.78082456888635      -1.96075874017293
H         3.26888959289986       0.47323276004811      -4.11745706369300
H         4.48111937232374       0.41813486058531      -2.77168155633729
H         4.30281490571903       1.91103963791730      -3.76894015389096
Cl        4.36888847593812       4.37912873238188       0.24945987437996
