29
C9H16N2O2 optimized with DFTB in AMS.
N         0.28275733832895      -0.66018022987139      -0.25414036227232
N        -1.86149144911080      -0.45961061142877      -0.28453356412700
C         1.66316473570967      -0.65095368721634      -0.72048099957679
C         2.62963645957446      -0.33202316645684       0.41759964699155
C        -0.72746892255345       0.02126229282641      -0.80005831638405
C        -0.21872630505564      -1.63851459001757       0.56186424649084
C        -1.57280095928604      -1.51173303163772       0.54231956208696
C         2.38074523371660       1.05807749072273       1.00077835772062
C        -3.19307013586541      -0.22903539045812      -0.81054875997853
H         1.74659731967070       0.08754349928041      -1.52235487265621
H         1.84447918371396      -1.65339074117399      -1.12666983714002
H         2.52881336297379      -1.08527876409402       1.20393601825980
H         3.64783831187209      -0.39094260676600       0.02315960900537
H        -0.64042706743182       0.83127196850591      -1.50270026717142
H         0.41416687010902      -2.34661123841000       1.06136009739131
H        -2.34250410540912      -2.09338646870594       1.01264387138177
H         1.36625432049341       1.12849169559050       1.39580543916771
H         2.50882938555963       1.82377467258971       0.23428880035188
H         3.08347449495380       1.25443787940487       1.80996424313673
H        -3.18480770762203       0.64494954147993      -1.45941807694861
H        -3.46496561553431      -1.12461286512933      -1.37658080115478
H        -3.89238444180756      -0.08155037678588       0.01180257141829
C        -0.97332177260904      -3.77295211967037      -3.30310616796781
C        -0.97907384209623      -3.28238372264045      -1.82677223178619
O        -2.09664988515696      -2.98022327832321      -1.35815548140309
O         0.13359130879932      -3.20817513626282      -1.26383055237857
H        -1.15901146344046      -2.91480678927365      -3.94939480931331
H        -0.01128065839060      -4.21519018812996      -3.55313384476940
H        -1.77116439330595      -4.49885319174810      -3.44867859147476
