25
C7H16ClN optimized with ADF in AMS.
N         0.00883888758885       0.28833800948730      -0.02945831870471
C        -0.42875626187962      -1.10997963877826      -0.41971143511829
C        -1.22605739841046       0.93241914549078       0.64630551425723
C        -1.93326341534506      -1.00911110457338      -0.60366044919974
C        -2.33407245236851      -0.11808024675836       0.57594850675583
C         1.16675784277138       0.27179326741098       0.95585476627219
C         0.37263937835840       1.09178900770372      -1.24695511496467
C         2.42794137096632      -0.36643290454094       0.41262955348080
H        -0.18895098617918      -1.77148216577853       0.42729872774462
H         0.13324155672079      -1.43072053877882      -1.30512179891760
H        -1.44096513127554       1.85666167004910       0.09633578997046
H        -0.93313177954897       1.25037529949851       1.65347011390550
H        -2.41067436855462      -2.00024653611671      -0.58783632458892
H        -2.17906536912224      -0.52794429289264      -1.56493795937801
H        -3.32106809713487       0.35055138472823       0.44815905304953
H        -2.36266935555516      -0.71711040333926       1.50133554568965
H         1.30965101092844       1.34921466178883       1.20969732519971
H         0.78438216203758      -0.27440865356512       1.83284160819876
H         1.22646713575943       0.61508567016787      -1.74267141207278
H        -0.49614711972482       1.10625611507938      -1.91774917770680
H         0.61424552745932       2.11287350301072      -0.87039761524794
H         3.15433462658584      -0.42128586281611       1.23794725913567
H         2.27973864923299      -1.39088129206052       0.03453082234932
H         2.88942297104277       0.24843521215824      -0.37267129185184
Cl        0.71094738774696       3.50608643982499       0.91785775094203
