29
C7H16BF4N optimized with ADF in AMS.
N         0.99231944509289      -0.23308297009883      -0.03157941914201
C         0.32840921035766       0.86378736691673      -0.85770993024791
C         0.20471055465641      -1.53051307463166      -0.18481676887593
C        -1.13696224411773       1.05081311225628      -0.50214429700004
C        -1.26243061046616      -1.36524005983771       0.17424728087461
C        -1.91527799343899      -0.25652208826184      -0.65169045853749
C         1.08146661710266       0.16524364733487       1.40353272516912
C         2.38220975511546      -0.45127038607228      -0.55432030046879
H         0.44699775427541       0.55512051578735      -1.90772518992400
H         0.92140121150971       1.77550135871561      -0.68377840214281
H         0.71129852550493      -2.27047829868682       0.45419735045571
H         0.32596824945480      -1.82630954590720      -1.23809641483174
H        -1.53318766250877       1.81230688797975      -1.19453238868611
H        -1.25333015423556       1.46566533367004       0.51529029917816
H        -1.39242361207308      -1.18062249733863       1.25593948591972
H        -1.74654997758742      -2.33363903456898      -0.03595230755754
H        -2.96197567777994      -0.11450683376980      -0.33932615926431
H        -1.90681645089024      -0.55364271859986      -1.71282960067097
H         0.08087362385285       0.33019603818692       1.81228378826569
H         1.58295382099468      -0.63980979919964       1.95596241481822
H         1.67027306528342       1.08871591741659       1.47130950499693
H         2.32229670811196      -0.73737243871717      -1.61245647448286
H         2.94136450424214       0.48658763276634      -0.43884122257090
H         2.84712845124788      -1.25141343585408       0.03631638952314
B         0.92873216178117      -1.31394792677258      -3.79957435416724
F        -0.41354555825095      -1.10126464382359      -3.32536141130010
F         1.53106644197898      -2.31015728119234      -2.95374501898874
F         1.65359434393383      -0.08679111435136      -3.59853055791966
F         0.93918791435197      -1.70157061644611      -5.13309066792214
