48
C12H22F6N2O4S2 optimized with DFTB in AMS.
N        -0.85010207803926       0.23510642940834       0.87762579956760
C        -2.14131900364524      -0.22420706724894       0.27078170289073
C        -1.28501182234155       1.35793742416492       1.77384562653798
C         0.05864045917290       0.74391688886942      -0.21280090891522
C        -2.94583367192343       1.05094587909137       0.02353707488350
C        -2.38689010025430       2.08438915454130       1.01310515030983
C        -0.20687638517323      -0.83893562954234       1.69953433134374
C         1.47148002254777       1.09119970231429       0.24857500991631
C         0.20205272292934      -2.06318886900583       0.89656550837164
C         2.20028886621980       1.88159490086058      -0.84519225520519
C         3.61733640602822       2.22659936851458      -0.39303465942878
H        -2.63853788022198      -0.86501212806481       1.00278657483501
H        -1.94491526163207      -0.79592257756737      -0.63621396151814
H        -1.66825142876155       0.91481875386039       2.69480520790226
H        -0.42739415908595       1.98423255020485       2.01302272602151
H         0.09089168449216      -0.02312296754822      -0.99106728378836
H        -0.42466432469580       1.63102235386052      -0.62724821638204
H        -2.82232145219679       1.39064373446164      -1.00684909251113
H        -4.00691151887264       0.85995056992053       0.19225289375275
H        -3.14902565877553       2.43435430081484       1.71024705191329
H        -1.98732889284924       2.95573555687823       0.49194158782607
H         0.65686928227394      -0.39113495389777       2.19361448672212
H        -0.93061107051147      -1.12314866623326       2.46741348625599
H         1.43679650255395       1.70285982207180       1.15072829726530
H         2.03616322800339       0.18288293168798       0.47316688268623
H         0.62544452534267      -2.78973220955649       1.58952379537896
H         0.95736222454517      -1.82462506940709       0.15040128923003
H        -0.65434098843543      -2.51872919291577       0.40127974813151
H         2.23040533470120       1.28987760416029      -1.76710282963149
H         1.64664297316717       2.80315227251779      -1.05295130539468
H         4.19644224739860       1.31784816085406      -0.22599311910336
H         3.58863717586271       2.79396198362003       0.53701205883710
H         4.11528540771506       2.82451362721190      -1.15594553092795
N         1.16956366944960       3.30201593639381       2.57939471549700
S         2.21487114745253       2.78222230706847       3.68094872480590
S        -0.04219916573243       4.24812555537881       3.05922963137755
C         1.33337676554452       1.56984265802454       4.81767057797451
C         0.63722566545222       5.92481238466815       3.55674516293790
O         3.12669292695333       1.92423626084506       2.96233589364586
O         2.74601429614660       3.79681134288055       4.55024794741717
O        -0.75992110902506       3.74355250089361       4.20823500224379
O        -0.81011637910429       4.51247657662313       1.86076047275798
F         2.19662563360050       0.65228019224648       5.22455806597027
F         0.37494759896261       0.93198789095505       4.11708598675002
F         0.78352040263464       2.13718851930000       5.86556902525372
F        -0.26649788393959       6.84458306311746       3.25821734938354
F         1.74410409671001       6.17784383619939       2.88118236356176
F         0.88362692565619       5.96801919500378       4.84836632774992
