39
C9H16F6N2O4S2 optimized with ForceField in AMS.
N         0.15324002385797       0.28999256636360      -0.08108713865849
C        -0.45011038437813      -1.01259976946923      -0.47479244396596
C        -0.94516733651427       1.05875092021316       0.57900917934774
C        -1.95584758164884      -0.85532027677944      -0.42908407797985
C        -2.16994677768049       0.16129420832761       0.65965399029830
C         1.27999833031533       0.10408796356377       0.88419650000325
C         0.61403089933996       1.02850294922363      -1.28593123777124
C         2.44814046476221      -0.74456863108549       0.35300704987006
H        -0.18737113853354      -1.82135506025551       0.24534842093407
H        -0.12686294619936      -1.35591045247661      -1.48436329903971
H        -1.22814949322091       1.97422944743017       0.00789528857723
H        -0.68096156125316       1.41415609460456       1.60183021646490
H        -2.46628918434578      -1.81599546276686      -0.19917342402431
H        -2.32454460582639      -0.45526443108063      -1.39930673178797
H        -3.11411958539495       0.72800385915059       0.50889911477335
H        -2.19546376853771      -0.35021556343878       1.64787878089278
H         1.68936946406140       1.09460548327751       1.18851867330042
H         0.90615331861540      -0.38330792623563       1.81412417525216
H         1.35505992034522       0.44287428091245      -1.86978958995228
H        -0.23612026931830       1.23752937884244      -1.97383605684131
H         1.07742614319396       2.00001721710968      -1.00231419575966
H         3.18161287868242      -0.90234379833899       1.17205183128018
H         2.11031365333371      -1.74172565803097       0.00615978326525
H         2.97491487204718      -0.22622441776837      -0.47195759272132
N         7.56814368972617      -2.02771334935018      -1.43056370384167
S         7.76242407990429      -1.35988112416333       0.05340139670126
S         8.60182382811461      -1.74364936063275      -2.67045360261698
C         6.87334312919689       0.18110748830112       0.12446069210599
C         9.76269700883598      -3.08880526537721      -2.78330504829437
O         7.20315088672772      -2.29152875640290       1.09050588931400
O         9.21830832833233      -1.11075083157786       0.33455686845292
O         9.34757750086268      -0.45536467503157      -2.45814883610087
O         7.82381886204506      -1.66719133563120      -3.95305530475629
F         6.98635604609502       0.72324593645599       1.39040897723980
F         5.54172621533360      -0.04446881746003      -0.15878685007075
F         7.39226643212020       1.06554909881609      -0.80124510938924
F        10.64763358406390      -2.84957773644390      -3.81733494305038
F         9.08253713502383      -4.26704241122887      -3.02592344756418
F        10.46311520231478      -3.20047097306605      -1.59747967598685
