43
C13H24F3NO2 optimized with ADF in AMS.
N         0.43284534498619      -0.08942054503762       0.32399283363573
C         0.24260691514752       1.39609214959442       0.04229740713763
C        -0.69191654952083      -0.86168145488578      -0.32863624413924
C         1.75996427316638      -0.48497849891894      -0.31236993179149
C         0.43265271719790      -0.36860616804239       1.81775278912472
C        -1.11508683932894       1.90683693150249       0.48801231608877
C        -2.07629358641494      -0.38212140443426       0.08383861913215
C        -2.24746561917916       1.11617283553441      -0.17000121860735
C         2.19191616340777      -1.92517038183256      -0.10038934964306
C         1.58631224020346       0.23835683093114       2.58771859445823
C         3.65048818094227      -2.09273952922553      -0.56192315584049
C         4.65363857998064      -1.45484334957402       0.39756458891082
H         0.35197877818817       1.49581939833930      -1.04880883033417
H         1.10769508402161       1.91276219693655       0.48900279003601
H        -0.53773673749020      -1.92264687562464      -0.08724888930024
H        -0.54771897456915      -0.72688210956343      -1.41238314464578
H         2.49219298865250       0.25609563155855       0.06349818470594
H         1.63561882789858      -0.27563865171905      -1.38653605374211
H        -0.52528805234302       0.00570910476214       2.19748911711888
H         0.41811602616551      -1.46406571825720       1.91410107257198
H        -1.16667722530862       2.97124641878648       0.20690304855185
H        -1.20816181666095       1.88291000389084       1.58740872130240
H        -2.27005635883592      -0.62196817033052       1.14295036863310
H        -2.80935163911481      -0.96488029362146      -0.49891817165232
H        -3.23049063307510       1.45603638343417       0.19364609666033
H        -2.22797964833235       1.30269193683367      -1.25966969020123
H         1.54363206927063      -2.62250458205433      -0.65911507889777
H         2.13935272421052      -2.20793140710257       0.96506020513001
H         1.41869472948786       0.03022455964102       3.65627302387133
H         2.55478223265417      -0.18917685761561       2.30071340021829
H         1.67059257195854       1.32429760203536       2.45113117159545
H         3.76510557005845      -1.65223488906234      -1.56802975329599
H         3.86215769393762      -3.17050591613199      -0.66458138599220
H         4.59063714772917      -1.92722819957569       1.39260165741841
H         4.48472324031822      -0.37319663067269       0.51017979966297
H         5.68256165981978      -1.58804281428796       0.03039943713624
C         3.81254669535707       2.77205329200360      -0.15414592385407
O         3.21766165535987       1.94589094008267       0.60812840951002
O         4.33844136451297       3.86547722001507       0.07236108441748
C         3.83230406863956       2.30294848811971      -1.66080560021910
F         2.54431609703932       2.31458285331209      -2.19356222164244
F         4.27769083997365       1.00434157096260      -1.81571955540712
F         4.58989674908807       3.06960502309426      -2.48172092802257
