38
C10H19F6N2P optimized with DFTB in AMS.
N         1.39125167173949      -1.78015020193458      -1.22866408406638
N        -0.73285003967027      -1.91796577672526      -0.91968776125745
C         2.81794824404370      -1.70240329200515      -0.92799494964290
C         3.27779135963348      -0.24888115189548      -0.79278207922286
C        -2.00891596540666      -2.02384350466470      -0.21858595135016
C         0.43482266552468      -1.76460329960345      -0.30608888902294
C         2.65008640504961       0.45281910879846       0.41600888565634
C         0.82010458688691      -1.92941547309848      -2.46459134717956
C        -0.52304791324271      -2.01672444071749      -2.26865540843377
C        -2.64375703959985      -0.64549667410367      -0.01895757615400
C         3.24983447173098       1.84188563440443       0.62201874412646
C        -1.80787232528228       0.25553573577437       0.88695945114153
H         2.98149213026310      -2.24625477987449       0.00684696409728
H         3.35573719348413      -2.19886761846371      -1.73872640152703
H         3.04000970542352       0.29739038453549      -1.71123857370064
H         4.36594195165193      -0.26396621957740      -0.68099084793011
H        -1.80691834047030      -2.50440537401973       0.74265104847342
H        -2.66389187953255      -2.66392160573385      -0.81430545664012
H         0.57696063237782      -1.67206604381932       0.75469722721957
H         1.56999821804814       0.54685919406150       0.26229755886648
H         2.81094000636372      -0.15435405197561       1.31216203107931
H         1.40501136197490      -1.97221330305812      -3.36664618668517
H        -1.32976252558277      -2.15148234543321      -2.96777030779828
H        -2.78933000886675      -0.16792942403881      -0.99333305447438
H        -3.62760958920682      -0.80428134398919       0.43111726236135
H         3.08590367307443       2.46522499751598      -0.25827504262758
H         4.32274686836586       1.77205691443300       0.80443809316776
H         2.78187155832148       2.32202104318516       1.48105915231891
H        -0.86048555151341       0.50858709569081       0.40907859470758
H        -1.59827559539745      -0.24347328412409       1.83291900966994
H        -2.34954906343011       1.17918884222557       1.08840164949122
P         0.67595404683319      -3.39979126537896       2.73409322001139
F        -0.61880717550834      -4.05240502593369       3.47185899745943
F         0.04919764473609      -3.84923303842805       1.24101790803827
F        -0.16053379846805      -1.94442392163995       2.56524557447331
F         1.96426741598835      -2.68302612753192       1.90866349898214
F         1.29463645452720      -2.87912062360196       4.14148647688691
F         1.50429782593563      -4.79460556355449       2.80979437298472
