41
C13H25ClN2 optimized with DFTB in AMS.
N         1.36280209118533       2.04810689217793       0.37703109756921
N        -0.78429078503332       2.23217253010090       0.21435159807349
C         2.75014834167359       1.84217878562896      -0.00734693045576
C        -2.08279248077865       2.37782153892924      -0.42929774463586
C         3.23834028049870       0.46070594054308       0.43748717741956
C        -2.57043318231064       1.03950986430824      -0.98383692191680
C         2.40899353535860      -0.67046359444455      -0.17803110364220
C        -2.63101241464098      -0.04047117692235       0.10093037860533
C         0.32723978039569       1.90037236840182      -0.46190153379454
C         0.91986659488337       2.64070086144237       1.53947700293939
C        -0.42306156007282       2.76221436588262       1.43373188385640
C         2.92991584828435      -2.04542718997573       0.25115129434765
C        -3.04877531984734      -1.39338450857086      -0.48313362693923
C         2.07096051206969      -3.16663763624333      -0.33115225004252
C        -3.06135899305414      -2.48132233973354       0.58921688318376
H         3.35369548603891       2.62382774607349       0.46113921341662
H         2.80614398492006       1.95342128365141      -1.09390391157017
H        -1.95607776137436       3.10542938557003      -1.24019076735204
H        -2.78318779044219       2.77183162650319       0.31114080132670
H         3.19270515246267       0.39781731218609       1.52949462047897
H         4.28491736869189       0.35883444013722       0.13639101775645
H        -3.56423598351555       1.19265535190869      -1.41382165443846
H        -1.90500827298783       0.71491726914740      -1.78920970057933
H         2.43743311698221      -0.59166647248370      -1.27003879258802
H         1.36506799833191      -0.56765228444082       0.13817459092897
H        -3.34068821350888       0.26075008205758       0.87919084741600
H        -1.64499664070574      -0.13720000446801       0.56934500293942
H         0.34702555995110       1.29344460321190      -1.34749447597485
H         1.59503482706128       2.91226040170118       2.33163363124022
H        -1.15211508054507       3.15995689118589       2.11747899266739
H         2.92319255539514      -2.11162768150858       1.34446961264646
H         3.96501483276168      -2.16522218961305      -0.08529200558405
H        -4.04549577716467      -1.30672013026317      -0.92812806184210
H        -2.35053524437655      -1.67571524957598      -1.27842313530657
H         2.07992454459565      -3.12820800172125      -1.42119996132587
H         1.03880760936439      -3.07386688458991       0.01053210280235
H         2.45605395797873      -4.13589548428607      -0.01415520624369
H        -3.76353794080910      -2.22716371145766       1.38442189439353
H        -2.06856053594453      -2.59737580633180       1.02690482892544
H        -3.36134732930872      -3.43373756775072       0.15191657291158
Cl        0.55367770043611       3.71644150263186      -1.98321310191284
