22
C6H8F6NP optimized with ADF in AMS.
N        -0.92285017793501      -0.60404138718414      -0.41751075357597
C        -0.19255042124892      -0.36348181198179       0.69241079859027
C        -0.34228235625659      -1.07510933513834      -1.53926555586531
C        -2.38881475647782      -0.47725719388828      -0.33543637230682
C         1.17410844333369      -0.54891256219094       0.68779187065312
C         1.02267748282731      -1.27593109050292      -1.59170009403593
C         1.79550570260946      -1.01091406543715      -0.46729030578116
H        -0.74923275379004      -0.04355882747886       1.56979221696175
H        -1.00942261194207      -1.30304918475375      -2.36629546805398
H        -2.74211447248096      -1.26892992148283       0.33882893478938
H        -2.63437742855519       0.52303293908632       0.04208290247036
H        -2.81547338176384      -0.62181536463214      -1.33217370804194
H         1.73445059430226      -0.36667941726148       1.60419468916195
H         1.46150326236787      -1.67709107790974      -2.50446475971558
H         2.87045676192603      -1.19641673232486      -0.47955858638955
P        -1.15668564276051      -4.07249055239448       0.73242778476045
F        -1.42521594205227      -2.63254623678898       1.58652204496941
F        -2.68506200364929      -4.54060526559500       1.09722699842081
F        -1.74762264374307      -3.30507425744153      -0.65231446666548
F        -0.89030780357408      -5.43020593528778      -0.13845849994542
F         0.35993393821453      -3.50036864062514       0.34295371129359
F        -0.56485446595149      -4.75895059908619       2.09314215910607
