48
C12H26F2N2O4S2 optimized with ForceField in AMS.
N         0.97085591480449      -0.32536418926087      -0.02791175506753
C         2.05647532264078       0.07153729437097      -0.97648400316958
C         1.62486196500586      -1.26550409109525       0.93414913909597
C         0.46804600504302       0.87488331088113       0.71689760502918
C        -0.11527871958668      -1.02950276735194      -0.78465427826835
C         3.24723513941108      -0.83640959494242      -0.73803873454904
C         3.12388603070252      -1.20167180592964       0.71324658779195
C        -0.25407883849822       1.92292672036957      -0.16332647847123
C        -1.31633402691569      -1.47582156559817       0.08288664275097
C        -0.55223747756747       3.19423408204049       0.64139810792060
C        -2.27706502075792      -2.35254774682294      -0.72902762823361
C        -1.29538878544043       4.22451656088003      -0.20401856709615
C        -3.48141715160268      -2.77525659962995       0.10732323545513
H         2.40714607788670       1.11502631374771      -0.80258082504442
H         1.74867132979279       0.01879038641915      -2.04554459060868
H         1.31908364791749      -2.32345193911565       0.76303042748156
H         1.39046154527978      -1.04042414341001       1.99986617540142
H        -0.22582849088859       0.56722569512523       1.53047322726455
H         1.32148073578271       1.37428689076237       1.23254816676700
H        -0.49986869388538      -0.38543205414460      -1.60647883862382
H         0.30897857240865      -1.92822321982671      -1.29045127231385
H         3.15518224706253      -1.75112761083248      -1.36335177882548
H         4.21191857977465      -0.32775293000100      -0.95385406181039
H         3.56594263671085      -0.39888843528265       1.34439578565868
H         3.62100566115858      -2.17094442765170       0.93581553651898
H         0.36799080680271       2.19170832345090      -1.04258529190864
H        -1.21633487565247       1.50988410494018      -0.53148009075302
H        -0.96896333554652      -2.04831420261466       0.96829624783674
H        -1.87568752108207      -0.58685387985105       0.44189874102433
H         0.39965906274050       3.64418075580994       0.99882146979219
H        -1.17536590810301       2.94011780111187       1.52659783653467
H        -2.63661846777223      -1.79015195937849      -1.61834649466116
H        -1.74691443849985      -3.26482047015108      -1.07929377703301
H        -2.26717397181673       3.81163840327468      -0.54913795674407
H        -0.68440709571000       4.51352557958303      -1.08552051861816
H        -1.49182792252916       5.13200867665704       0.40496729975673
H        -4.04466286832630      -1.88203511500131       0.45223847830134
H        -3.15092895004601      -3.36438307872913       0.98920956396818
H        -4.15765735274209      -3.40546572812138      -0.50775153396029
N         1.04740546834551      -2.89819995246232      -4.06488141370524
S         2.39052755977579      -2.22479195692897      -4.71207542660750
S        -0.39719772467024      -2.79853004659768      -4.82588445389560
F         2.23160350322226      -0.55814637770885      -4.71024345204789
F        -0.30670585846294      -3.59170238296963      -6.29820317792172
O         3.59148398360188      -2.61783436643885      -3.90101687466398
O         2.56500767302935      -2.69350260024631      -6.12906254523161
O        -0.74368302434905      -1.35728751982540      -5.07150392707535
O        -1.45909346304877      -3.43474206710318      -3.97598260844082
