34
C8H18F6NP optimized with ForceField in AMS.
N         0.02933658560433      -0.00688214192182       0.00179196939833
C         0.94423800318815      -0.85425929855082      -0.82304130989212
C         0.93397790572368       0.84530396079719       0.83302629111626
C         2.35471823120936      -0.31792020008480      -0.67282873972128
C         2.34969937302206       0.32183125449100       0.68683947044100
C        -0.80678729988073      -0.87041635176161       0.89790961340848
C        -0.80455270934378       0.85158809313895      -0.90090027043516
C        -1.81263182912520      -1.77198825057169       0.15914736197814
C        -1.81169090488236       1.75674142210783      -0.16946375864680
H         0.66553397409135      -0.88286723581541      -1.90166422631522
H         0.96398267350405      -1.91343104216857      -0.47701885746233
H         0.65072706749596       0.86812780734516       1.91057679938486
H         0.94713369443799       1.90544122876921       0.49013223092329
H         2.55194617899720       0.45104497194390      -1.45237858023686
H         3.11650754111793      -1.12514393955119      -0.74024246324815
H         2.55204473303811      -0.44497960515308       1.46714101332551
H         3.10350655527908       1.13640390545025       0.75629178572327
H        -0.14887769717652      -1.52531389486804       1.51454575754646
H        -1.37312338524568      -0.25128434032580       1.62840901736657
H        -0.14563729818813       1.50365796863295      -1.51946524163080
H        -1.36990323885102       0.22737938970710      -1.62794735869095
H        -2.26133123958559      -2.48596711341760       0.88131543174936
H        -2.64071582683480      -1.17520336995599      -0.27437869798776
H        -1.32463781632856      -2.35741640582082      -0.64660117310387
H        -2.28984600518903       2.43847543103272      -0.90380789647057
H        -2.61655392434738       1.15790436286424       0.30053763975770
H        -1.31935967248745       2.37711237554970       0.60672683351317
P        -6.51299391342042       2.02892376165657       1.41060409701142
F        -7.33652855975810       1.16698488793947       0.17473576648775
F        -5.10938992774716       1.99333057043623       0.42400856278385
F        -6.86160875429540       3.56437433766463       0.72551922075150
F        -5.65530402370892       2.78348888381464       2.69278401189978
F        -7.99904534981213       2.13542410063251       2.26450239000541
F        -6.10168011020092       0.53742174779300       2.15583439186975
