49
C13H16F18NP optimized with ForceField in AMS.
N         0.86708119682808      -0.00305663626762      -0.01349256009087
C         0.10793395096393       1.22644517086887      -0.38600073170534
C         0.10500651506350      -1.23407717675727      -0.37441239422409
C        -1.32243252263136       1.25586697239961       0.18021568936379
C        -1.32328262953678      -1.25536753556572       0.19683794037359
C        -2.08797773796046      -0.00197389647847      -0.22009156808045
C         1.21056174923901       0.00308582267723       1.43193903406597
C         2.14073253750504      -0.00802024866403      -0.77485147329450
H         0.02796602632242       1.30834764559357      -1.49520715280221
H         0.64427795345530       2.13881949104999      -0.03812516911033
H         0.64072729325062      -2.14479771095651      -0.02135199471172
H         0.02181309331852      -1.32438607911069      -1.48281838566560
H        -1.85354138420282       2.14459765314733      -0.22529844262090
H        -1.30997981095306       1.36129247461901       1.28508688485414
H        -1.30751246703970      -1.34470618870238       1.30296163096876
H        -1.85463377039988      -2.15067683999634      -0.19228051973686
H        -3.08631464110029       0.00344448007248       0.26522178910439
H        -2.23497953480977      -0.00879709447623      -1.32243969799589
H         0.31190502407629       0.01323083527817       2.07913148158557
H         1.80283322916076      -0.89885776091458       1.70491312116060
H         1.81475081793946       0.90008529424724       1.69470344590127
H         1.95645240876137      -0.01211508105963      -1.87298579022156
H         2.75236535484253       0.89273232739101      -0.54070357268699
H         2.74985179603581      -0.90844773242882      -0.53325834404024
P        -6.61847705719995      -3.58552697673290      -0.39922032932355
F        -7.28553796143430      -2.60588805157312       0.84914419331639
F        -4.95165769937563      -3.91671687180176      -0.10974126794439
F        -8.30103177703344      -3.61853772441125      -0.75882326392251
C        -6.71431346458831      -4.85902235695784       1.06010802064977
C        -6.07794463938070      -1.76715486108118      -0.78373821003414
C        -6.62631683185073      -4.41600614680528      -2.14522723818072
C        -8.10802153627857      -5.12418567698550       1.69247213408518
C        -5.12241784473231      -1.55296288414600      -1.97604229121394
C        -7.08505014582084      -5.88495212271217      -2.22254741286584
F        -5.89639730164361      -4.42165049038009       2.09453935141721
F        -6.21095131638054      -6.07535620319134       0.64464260845776
F        -5.42273572593273      -1.23820694982434       0.32371296352383
F        -7.20840565525525      -0.99929091504642      -1.02714342095574
F        -5.33861624397966      -4.39591929663361      -2.65204827939200
F        -7.42181828926460      -3.67979725475991      -3.01321037438798
F        -7.99643414525609      -6.17413438508184       2.58696875103454
F        -9.05564927900722      -5.47304737234579       0.75405188056278
F        -8.56133877402784      -4.02426693456478       2.39872875165005
F        -4.74847159616215      -0.22147577003249      -2.00775258619523
F        -3.97600165090775      -2.31355303586774      -1.84618288603673
F        -5.73450056977443      -1.83025449008879      -3.18108202321696
F        -6.10418289573873      -6.73035467293717      -1.73919484606606
F        -7.30124816811911      -6.21707484372168      -3.54841392583714
F        -8.26111764048407      -6.09625664818321      -1.53883438841511
