23
C7H8F3NO3S optimized with DFTB in AMS.
N         1.15565358565636      -0.03487045742377       0.03747149678014
C         1.36460036581474       1.23151513442492      -0.36020482118847
C         1.50678889751483      -1.07399489655459      -0.73319874500494
C         0.65396716548583      -0.25269141217205       1.39260791417746
C         1.89400267064893       1.49002458348024      -1.60880927203720
C         2.03307810117560      -0.86500061632584      -1.99055590590856
C         2.23298587545014       0.43378094506587      -2.44031519331393
H         1.08607084168910       2.01602928187214       0.33020759779540
H         1.36537759058556      -2.06559037237047      -0.32175750568103
H         0.62715538436124      -1.31841251878972       1.60465526450163
H         1.33757199969649       0.24695131126419       2.08104529521380
H        -0.34382051091873       0.17655199134383       1.47881420597309
H         2.06458765688687       2.51653531644385      -1.90600870788653
H         2.31552702591910      -1.71588992544366      -2.59623851177450
H         2.66700941835127       0.61605361248728      -3.41516332585653
S         4.30838557385644       0.59649246295119       1.01048015414870
O         5.56843401091264       1.23170936749637       1.27512170495734
O         4.16743389703906      -0.04081132556924      -0.28761635665626
O         3.12831620367885       1.37288794898328       1.40447504642443
C         4.21742591607421      -0.85480354605766       2.16970517858787
F         4.07719618490532      -0.48035924500875       3.43530250800299
F         5.26866937885962      -1.65370377201537       2.07746385158865
F         3.12365128465659      -1.58363244608203       1.84803086265646
