61
C17H29F6N3O4S2 optimized with ADF in AMS.
N         3.02203543367310       0.79759320900074       0.98801651090773
N         2.85159553677031      -1.36642869264823       0.96642705182921
C         1.51107982155156       2.73277962760130       0.81002646700618
C         2.80414820103152       2.18861008067259       1.41869654827760
C         0.91616917370811      -2.86607777833896       1.33214992951841
C         2.43627917851663      -2.72158194407214       1.38136910331953
C         0.28431232074730       1.92041816502592       1.21734133529251
C         0.28947461322051      -2.53126432498801      -0.01764639594865
C        -1.01352824699305       2.40298921022243       0.57590555910374
C        -1.23730618379518      -2.53788540110020       0.03779019904988
C         2.73334998994413      -0.27504816252496       1.73547628724859
C         3.32073553011957       0.38422523720827      -0.29535850035605
C         3.21511849812804      -0.97788505461539      -0.30701801877047
C        -2.21721453479011       1.58765483116433       1.04679032927952
C        -1.88517280826152      -2.15045884267331      -1.28900014317268
C        -3.51645952314618       1.97947072835236       0.35165492961709
C        -3.40767480915042      -2.08544304073093      -1.20291063769263
H         1.40800339646184       3.77759320205904       1.15176650803169
H         1.60635195915386       2.76915109000901      -0.29097469928319
H         0.48860299012280      -2.22762266929750       2.12114323792608
H         0.68419456236796      -3.90697261921186       1.61926263665843
H         3.68612179082462       2.77423229800471       1.11885538508580
H         2.74020855853176       2.16782680320713       2.51673564092338
H         2.80846196371910      -2.88201394583944       2.40382229901615
H         2.94558985010808      -3.42168355668705       0.70264833836772
H         0.19363433502948       1.93475164000848       2.31644679215089
H         0.42998314517639       0.86093950710977       0.93677547723394
H         0.64103225839710      -3.23896206757184      -0.79347689620602
H         0.61208721400609      -1.52450616140072      -0.34218269177659
H        -1.17669688161911       3.47059694971536       0.81484105739530
H        -0.93127257347228       2.33783560365705      -0.52639079565265
H        -1.56626021616598      -1.83561553959528       0.82595931707720
H        -1.59677696079250      -3.53675244910141       0.34776735971826
H         2.39371154222752      -0.28616930711751       2.76933728615931
H         3.58020162492663       1.08335690130356      -1.08045624280987
H         3.36416040363016      -1.69498128854888      -1.10453048139416
H        -2.01280169720226       0.51580801991392       0.87392963102130
H        -2.32394850948385       1.70242429909405       2.13963382768194
H        -1.58493221396438      -2.87616070319076      -2.06793132720613
H        -1.49012194500881      -1.16855771800512      -1.61129143638446
H        -3.74416974092781       3.04640026307981       0.51118096960837
H        -3.45072991996266       1.80978259410348      -0.73560713446183
H        -4.36602160404768       1.39431624542402       0.73416465592896
H        -3.85664671138753      -1.83142773308611      -2.17463286306071
H        -3.72581100357417      -1.32379601852925      -0.47285128905966
H        -3.82462789779306      -3.05306880032483      -0.87928555930893
N         1.31648957177214      -0.23267160759611       6.40163723831590
S         0.88484674258806      -0.12530252742907       4.88891322401965
S         1.59786022580984      -1.70075462072458       7.06784610884235
C        -1.00989843374083      -0.12147838026799       4.85733086015130
C         3.26233961517170      -2.25910610588962       6.27276453559763
O         1.23115571389759       1.19677111601970       4.35493805580381
O         1.23149066596019      -1.28332985599656       4.04099429225156
O         0.65774697460334      -2.74600603482782       6.68841571889329
O         1.93499773679463      -1.45843363214037       8.45881427531791
F        -1.42985780974739      -0.41210310441759       3.59207225050204
F        -1.48742379294088       1.10032340659669       5.18825912604213
F        -1.52472702478732      -1.03460097733206       5.69696395175850
F         4.05473207464632      -2.78356765866337       7.23289007563443
F         3.92401501641771      -1.22335382329622       5.69281878709229
F         3.06557596259929      -3.21121391347267       5.32629800418715
