56
C14H28F6N2O4S2 optimized with ADF in AMS.
N        -0.78612730576365      -0.28594152379038      -0.38508546107281
C        -1.38908008096768       0.33081229370201       0.86444348275952
C        -1.82260545093487      -0.36508848504778      -1.50551611156070
C        -0.32099177576757      -1.70899435201935      -0.06131661791369
C         0.37378075056530       0.57299963511869      -0.84424331590020
C        -2.69136277269024      -0.29304459065846       1.33637233696271
C        -2.46323521388015       0.94869654002538      -1.91935437012133
C         0.61845465423437      -2.34348761788509      -1.07380121093726
C         1.51894544006375       0.71874343849186       0.14717244462650
C        -3.09466621813783       0.31048275401741       2.68149098633163
C        -3.50108051309134       0.67017463047649      -3.01179363422855
C         0.86835910618231      -3.80063654895172      -0.67547248256762
C         2.67309598775822       1.47723604176641      -0.50976793538834
H        -1.53098247981126       1.40066788515406       0.64689239213661
H        -0.62148158097694       0.24411516083603       1.64644718913358
H        -2.58778527214862      -1.07157332016783      -1.15892586044925
H        -1.32017720090048      -0.84199690172843      -2.35768868832418
H        -1.23429125849952      -2.31612978690652       0.00461810531341
H         0.14847337894892      -1.65988081950106       0.93332172124487
H        -0.04758266864999       1.56030065314865      -1.07780211431231
H         0.72600295029791       0.12733362860438      -1.78589396012702
H        -3.48951660893199      -0.11246218707321       0.60405130498337
H        -2.59022012974575      -1.38509893032275       1.43508106925249
H        -2.95782424619141       1.43577480085174      -1.06153753508402
H        -1.70821112870284       1.65190033261464      -2.30865114806547
H         0.16012989229627      -2.33665974428471      -2.07483603794392
H         1.57776273903352      -1.80301330088005      -1.11915830856788
H         1.18604977605265       1.26789661129987       1.04232261349247
H         1.87332968485688      -0.26952368337110       0.48039462503012
H        -4.05242847483700      -0.11150563247869       3.01584004847960
H        -2.34200948392909       0.10097759144703       3.45749984837270
H        -3.21634327288139       1.40298613883243       2.60871185144283
H        -3.95190095621361       1.61112404460852      -3.35768971834317
H        -3.03992806074636       0.16319941713635      -3.87237723371121
H        -4.30151061531837       0.01088561805682      -2.64773958741845
H         1.55402859343078      -4.27498242148461      -1.39078973214987
H         1.31563310768948      -3.87556339489554       0.32916973631494
H        -0.07662894252078      -4.36208298970848      -0.68627435661156
H         3.50060591616599       1.61676820444151       0.19954799304394
H         3.06216140481360       0.92728214035622      -1.38059965058887
H         2.35156663603749       2.47318893200761      -0.85290176174009
N        -3.91953273882076      -2.79119995291439      -3.06437034665443
S        -5.41526229608051      -3.22293396927205      -2.62073198713520
S        -2.58416307189499      -3.59594211777620      -2.72354538842775
C        -5.54611417830767      -2.84416645089320      -0.76657175175767
C        -2.61092850861832      -5.30393327846277      -3.56286170590101
O        -6.31260230776984      -2.23510625937239      -3.20015748069354
O        -5.69389601259891      -4.64884564322287      -2.70940454840220
O        -2.38734527886624      -3.90047718607129      -1.29892902684117
O        -1.49747074654198      -2.91183020367083      -3.43472163437096
F        -6.85185776409280      -2.79312971201241      -0.41497291775161
F        -4.99253369951899      -1.61986015367897      -0.48575042025482
F        -4.93317902690586      -3.76234245994389       0.00853718186810
F        -1.32101403420259      -5.71049939562467      -3.70714294346377
F        -3.17825453465071      -5.22622984666127      -4.78448065667016
F        -3.26034305961853      -6.22000490976114      -2.82267176253734
