40
C10H15F6N3O4S2 optimized with ADF in AMS.
H         3.74594003696165       1.03796266765498      -2.17392227143997
H         2.68958519895064       2.39931326118820      -2.66799262346971
H         2.73780258842729       0.91478104441287      -3.66814175092994
C         2.79195938914448       1.30973797312697      -2.64656026866097
H        -0.17475381114258      -1.58844105585155      -0.54650893393705
H         1.76744175496933      -1.30471954311585      -2.52109504923622
H         1.14764423747608       2.43157115905968      -0.61523533847218
N         1.69681079504689       0.74728249954425      -1.86433969500230
C         1.02627379373678       1.39399017150285      -0.90139270482189
N         0.19911415631241       0.52568482556144      -0.30956336405809
C         0.37153948956029      -0.71779428426925      -0.88480286942904
C         1.31491520752420      -0.57858225495045      -1.85833709706823
C        -0.60069213859677       0.82785004115034       0.88641367933995
H        -0.52159816460036       1.91321436187536       1.04184301842220
H        -1.65011626014339       0.57260368742314       0.66780883337779
C        -0.05961195109472       0.09250367105153       2.10773636803278
H         1.03538357648515       0.22058196204921       2.11748061184573
H        -0.26941394907171      -0.98943343269608       2.02574339232627
C        -0.65887027475799       0.64943696626926       3.39749670207174
H        -0.43017904088929       1.72868027446779       3.44855081328562
H        -1.76025802952744       0.55198448007982       3.37812657577039
C        -0.09568625486907      -0.05022008735357       4.63162219148872
H         0.99947889337883       0.05829874213382       4.67016745852572
H        -0.33033857594280      -1.12671921041603       4.62103091687610
H        -0.51223923641448       0.37893640083021       5.55552043193417
N         2.96662598332966       1.44444610391855       1.06774622434984
S         2.93088515465848       2.88595026394468       1.78196794351206
S         4.24655159644138       0.53765719350281       0.69561224012589
C         3.73408752991390       4.13759804157291       0.60767957334969
C         4.99382955427373      -0.08799068691347       2.31682972021806
O         1.51893818282968       3.28345119810580       1.73400033255667
O         3.68936342143598       3.00589462719407       3.01635778187936
O         5.33411442645188       1.25322042379905       0.03433737799744
O         3.70027233911785      -0.66622977882177       0.07006692701994
F         3.37804112443701       5.38295538683589       0.99646732038043
F         3.27255394000893       3.95076427515930      -0.67031493367674
F         5.07240493789494       4.05314657657056       0.59465148010119
F         5.82665859526664      -1.11685029623079       2.02932321588285
F         4.02349999760813      -0.53694405459236       3.14931157821910
F         5.69495002210839       0.87634171762583       2.93802805171262
