48
C14H31NO2 optimized with ForceField in AMS.
N        -0.00911812779071       0.00024251987029       0.00751721234281
C        -0.86810178564500       0.64005789923324       1.06602073660093
C        -0.84582641826845      -0.64836757115893      -1.06406197052418
C         0.84055117197198      -1.06071471966538       0.65650118776753
C         0.83718868115842       1.07016683292023      -0.62964876822539
C        -1.93804259565451      -0.27561990687247       1.71404217214453
C        -1.91443944134761       0.25647932193843      -1.72965516545400
C         1.92634236665699      -1.70366554423116      -0.24507000448229
C         1.89969831023970       1.73051393958548       0.28609347976813
C        -2.75433905782206       0.49635899198445       2.74842446381051
C        -2.70735147884738      -0.52392420383745      -2.77590387005379
C         2.72499858794054      -2.74828385797622       0.53125557293294
C         2.71183855198891       2.76546464932314      -0.48955014902004
H        -1.37767100301704       1.54311130918510       0.66208624768388
H        -0.23321425086712       1.01083592893389       1.89950206657926
H        -1.35234224459005      -1.55655170853880      -0.66796362096339
H        -0.19534802383587      -1.01245438202034      -1.88829723626410
H         0.20059052749136      -1.89646228028459       1.01321808056473
H         1.33525957415912      -0.66062204448714       1.56943829889155
H         0.19367065831628       1.89680596054608      -1.00055099957521
H         1.35048158741279       0.67196727587282      -1.53054015962649
H        -2.64571344345354      -0.67183470160461       0.95897458714976
H        -1.46203287871071      -1.13020115108363       2.23560894849477
H        -2.63710706250365       0.64724088232965      -0.98608927456184
H        -1.43872370374437       1.11454874002491      -2.24569334780542
H         1.46736323540002      -2.21524286494267      -1.11465214339594
H         2.64347742403381      -0.94680746818438      -0.61942230893329
H         1.41664365781013       2.25406539217216       1.13552692920404
H         2.61135894452801       0.98380874982503       0.69045921358387
H        -3.51187527730580      -0.17613083781800       3.20350046378719
H        -2.09317102561195       0.88088034730770       3.55421749701456
H        -3.28039011891114       1.34872483894258       2.26793168316249
H        -3.46434554229613       0.14103685116950      -3.24285713038550
H        -2.03030451177954      -0.90208526461217      -3.57150183587462
H        -3.23233867170882      -1.38122427820733      -2.30316966614713
H         3.49413069200063      -3.19810940071516      -0.13164354520609
H         3.23570885782509      -2.27845255677038       1.39868591733715
H         2.05452525529278      -3.55646582200621       0.89408774196083
H         3.46471716154796       3.22923226937492       0.18213380274302
H         3.24346956737370       2.28337958176142      -1.33685581410499
H         2.04686604393791       3.56452422287144      -0.88136013232979
C         5.10176012104712       1.03874033423062      -3.86437140252248
C         3.99076507591373       0.10737841283163      -3.49617711446321
O         2.83187594332077       0.43754549189179      -3.68613857042297
O         4.23774231920498      -0.98526761328345      -3.01111794358602
H         5.04360147159572       1.27702911822513      -4.94722730206730
H         5.01238456674615       1.97807346834347      -3.27939090279088
H         6.08895389739684       0.57555223650537      -3.65184429083813
