35
C11H18BF4N optimized with ForceField in AMS.
N         2.36535577474014       0.03358268520314      -0.52531142992779
C        -1.44731322720859       0.05433022123049      -0.69525837665834
C        -0.04698662167538       0.02235491586375      -0.07504363737273
C        -2.52490701304304      -0.01126470633584       0.39333696270312
C         1.03981774352581       0.08183073890026      -1.15162792997486
C        -3.93088378495346       0.00818159628540      -0.21668207819929
C        -5.00111889725374      -0.06087961005964       0.86924011511960
C         2.95796825626839      -1.17586927119332      -0.28405984397536
C         2.98129447460697       1.19593337782844      -0.14897593702888
C         4.20609737619509      -1.24163616302527       0.33960265261749
C         4.22972517143467       1.16585211056392       0.47695916039451
C         4.84378033621150      -0.06177729681645       0.71939088920500
H        -1.56334046674379      -0.81215982889139      -1.38362905333077
H        -1.56861863747719       0.99278016261717      -1.28070100476191
H         0.07451899300863       0.88891694674916       0.61190737028564
H         0.07592691759933      -0.91357658590585       0.51356879448874
H        -2.39398932982127      -0.94553834688357       0.98374800497547
H        -2.40890774172552       0.85872101721765       1.07762660330183
H         0.93017107510444       1.01516016447553      -1.74878652215921
H         0.91912111284402      -0.76882730000994      -1.85984067061095
H        -4.07166041445983       0.94236226756342      -0.80345909040297
H        -4.05442424728047      -0.86029583011065      -0.90031761261276
H        -4.91466432446561       0.81109656630495       1.55193732737587
H        -6.00745841104604      -0.04711190437245       0.40108195593250
H        -4.89514899322268      -0.99803142992233       1.45616598555154
H         2.46449825112990      -2.09765740236009      -0.56875861059903
H         2.50633945697502       2.15357698694311      -0.32646439090408
H         4.67211123959227      -2.19997414564310       0.52813893373877
H         4.71426004301145       2.08710638673748       0.77293152813119
H         5.81226585144242      -0.09856611927231       1.19862872386199
B         8.05890358212179       0.45430867302538       4.23045746403158
F         9.18842350372107       0.56847062551969       3.37622937741352
F         7.02489575288282      -0.24891590941883       3.55757571716028
F         7.59822672568211       1.75130398331743       4.58254803581813
F         8.42374355567879      -0.25451178492537       5.40628440401218
