34
C12H19NO2 optimized with ForceField in AMS.
N         1.74582219999213      -0.03284507124276      -0.50486781989745
C        -0.63514059242660      -0.00584849842032       0.10456668241544
C        -2.07352572517903      -0.02587618616308      -0.42418090491282
C         0.37982993741712      -0.07857094050922      -1.04058966051882
C        -3.08157425990834       0.04502302365692       0.72883581005257
C        -4.51642065863043       0.03475550083570       0.20987021130979
C         2.38352586342216      -1.19561344050627      -0.16709601911993
C         2.35913683666377       1.17530272028040      -0.31425938424634
C         3.66926305643608      -1.16604091535635       0.37879410608300
C         3.64397457947918       1.24027141982639       0.22928234480189
C         4.29799943804129       0.06147040648266       0.58114772222073
H        -0.47749581929108      -0.87183615687052       0.78460701448295
H        -0.46625023467279       0.93018577278884       0.68125235688900
H        -2.24012797633153      -0.96147845820130      -1.00261906399197
H        -2.22772707300802       0.84259052350177      -1.10222905002407
H         0.22518189690305      -1.01515614397868      -1.62210688959839
H         0.21574250167095       0.76787454225638      -1.74491885760573
H        -2.91846416063131       0.97679609768805       1.31345739958366
H        -2.93853794296458      -0.82516814088216       1.40622175086611
H        -4.69490675252532       0.91153891928074      -0.44855849674595
H        -5.22086307007344       0.08506829145254       1.06675957399444
H        -4.71465084602695      -0.89871622635738      -0.35881317175982
H         1.89582850341357      -2.15266192453403      -0.30956099821750
H         1.85257174572961       2.09729319035770      -0.57379658092118
H         4.17110376502815      -2.08706697712518       0.64633163054971
H         4.12593066059740       2.19739189494795       0.38077936688885
H         5.28786927652264       0.10147950713101       1.01331388226982
C         7.78748239942760      -1.05062578594066      -0.26361161348061
C         6.97420238128475      -1.88534451556138      -1.20199339539078
O         6.87154724703813      -3.08686250806957      -1.01503385129888
O         6.41059237853572      -1.37017255553429      -2.15410495536538
H         7.37088315105652      -1.12995941888063       0.76195498052659
H         8.83707033503283      -1.41156683241121      -0.25508186590592
H         7.77551360027676       0.01572513575795      -0.57621564253302
