51
C15H29BF4N2 optimized with DFTB in AMS.
N         2.86043257527699       0.39355721507621      -0.24492848279316
N         2.49463421060177      -1.70620464423658       0.06529710512190
C         1.50669283718216       2.41436683635455      -0.51852134899161
C         2.84704030773860       1.83638495944372      -0.04795170604133
C         0.58256283572571      -2.83985993637210       1.11616305397378
C         2.04343322375274      -2.95819722673312       0.67325933729382
C         0.33976877163740       1.95282235057277       0.35862326587125
C        -0.33543459009741      -2.37142321389687      -0.01658072737223
C        -1.00033957526726       2.46811426721742      -0.17466215452738
C        -1.78860483203828      -2.27026198497359       0.45285292345660
C         2.48303750251823      -0.51565169347974       0.65927807313641
C         3.10006121811359      -0.23736705718256      -1.43875030425130
C         2.87361255739071      -1.56189594990413      -1.23755734936384
C        -2.15365812053737       2.04260435039907       0.73948788558498
C        -2.69593433678614      -1.80228256229999      -0.68924690232297
C        -3.50408340901304       2.47096266695854       0.16917774974999
C        -4.14637345115946      -1.66017303887601      -0.23104881290930
H         1.58281631562518       3.50495657533653      -0.48998663787300
H         1.33522022208374       2.11310464658459      -1.55609841687438
H         0.51035764617578      -2.15268811661462       1.96780635043529
H         0.27044011175232      -3.83213493829689       1.45299539690948
H         3.67004070887629       2.26349448388772      -0.62655022777142
H         3.01050298442318       2.04038738952974       1.01373962193142
H         2.68712863968823      -3.17335575948044       1.53118551805290
H         2.15923245669915      -3.74319053253805      -0.07736157436817
H         0.49308163075804       2.30826280871802       1.38358641460153
H         0.31465568519875       0.85823981650783       0.38430398327305
H        -0.26201733492867      -3.07151767069083      -0.85191242484067
H        -0.00476273190046      -1.38916521281476      -0.37338720843559
H        -0.97173879663502       3.56055231024567      -0.24662316993419
H        -1.16377794418521       2.06954284678553      -1.18145365274838
H        -1.85751176091385      -1.56368696616579       1.28950847156460
H        -2.12732441389315      -3.24758615771010       0.81194978575446
H         2.23905454994387      -0.31636214398386       1.68821347218096
H         3.41127325573282       0.30219443384674      -2.31562891118348
H         2.93075013756578      -2.41179841935908      -1.90040665406662
H        -2.13895481945313       0.95432490741913       0.85848391619683
H        -2.01556644622473       2.48805376415859       1.73057239060959
H        -2.64225940215297      -2.52209606298681      -1.51177239580682
H        -2.33812558908807      -0.83744342615604      -1.06632974591635
H        -3.54561183141066       3.55501889078923       0.05501539097203
H        -3.66859476217542       2.01187108665146      -0.80638955618643
H        -4.30609446482279       2.16031701085665       0.83877458521416
H        -4.76983549432950      -1.32262979701433      -1.05949566145524
H        -4.22348829309554      -0.93326513920405       0.57965935375583
H        -4.53013371055818      -2.61724186224847       0.12495100947812
B         1.57977239338894      -4.51202659716523      -2.32890795067111
F         1.45109795888397      -5.34824926499735      -3.40073009083346
F         1.10433408511618      -3.20593808085170      -2.62813824463583
F         2.94679447324675      -4.36144210870987      -1.94884657028004
F         0.87754290226943      -4.97455302189675      -1.20041384866470
