39
C11H19F3N2O3S optimized with ForceField in AMS.
N         1.84768103042185      -0.83675794903919      -0.20012221863107
N         3.10270809153942       0.99375676044432      -0.08070862482260
C        -0.41954722797928      -1.80216606853461      -0.02900512199204
C        -1.13467231934717      -0.47341003120090      -0.31342525932011
C         0.94976414580222      -1.86840029985279      -0.71626336447222
C        -2.53933714386089      -0.45728885000217       0.29891889278526
C        -3.22826564402965       0.89011542669229       0.05270358385760
C         2.28481471870130       0.25636055156188      -0.85590568350711
C         2.41028728644446      -0.78965005432288       1.02461360836064
C        -4.63417394015097       0.90844995305671       0.64478779496402
C         3.18923576383372       0.34736435765769       1.09822193673299
C         3.75942804549946       2.24477762327688      -0.43532981016820
H        -0.29207516649324      -1.93462693120673       1.06769738700810
H        -1.04146034556995      -2.64349081669273      -0.40570244471150
H        -1.21274619643415      -0.32352297062777      -1.41301378100639
H        -0.54154341678019       0.36379945226460       0.11565201777191
H         0.81896301640502      -1.74760850953533      -1.81433144630071
H         1.40365355654174      -2.86787649249311      -0.54180827884381
H        -3.14700260059861      -1.27132127402518      -0.15491001923383
H        -2.46647977943570      -0.63791442321391       1.39430950373087
H        -2.63257469793826       1.70572172897973       0.51822164928171
H        -3.29592127807912       1.08402789277664      -1.04024215353421
H         2.01055001655940       0.51031087770132      -1.87249838114719
H         2.26740144750492      -1.52669287518666       1.80412004040167
H         3.77330742102546       0.67715476995445       1.94768245552529
H        -4.59372515687733       0.73091694465480       1.74070007319867
H        -5.10066887808407       1.89949326362003       0.46247784725974
H        -5.26342228832478       0.12649439795761       0.16860644350265
H         4.86053258328984       2.12026180031171      -0.36830839531502
H         3.49366025527259       2.54406390773638      -1.47171745420863
H         3.43692783431472       3.04563410670442       0.26294405432688
S         5.67279733650426      -0.96160551419649      -3.00658268596318
O         4.58420884360346      -1.50494529927322      -2.07001085458041
O         6.76184129170905      -0.48530949711196      -2.03356303171986
O         5.06529573162537       0.35113793098217      -3.52403277765811
C         6.22656462017500      -2.12372961389184      -4.28562109154185
F         5.16158792057375      -2.45207592942532      -5.10202719670256
F         6.71508557770535      -3.26873588074599      -3.68656449369311
F         7.22370260333099      -1.54082682365485      -5.04356996223426
