25
C7H16ClN optimized with ForceField in AMS.
N         0.15875348896393       0.27202706459436      -0.09385895294574
C        -0.47644168245661      -1.02515917465829      -0.45163955475733
C        -0.90748023962321       1.06681697800905       0.58825376512591
C        -1.97771106396242      -0.83022292825230      -0.39648369552246
C        -2.15749756431135       0.20417683023100       0.68215637637216
C         1.31055574403072       0.08075548472865       0.83950087118584
C         0.59436335675527       0.98568598245253      -1.32227919553105
C         2.46396611792262      -0.76603873788695       0.27393930034825
H        -0.22208545528688      -1.82286267698571       0.28427022623209
H        -0.16968412601754      -1.39886022890907      -1.45571634568530
H        -1.16936938297671       1.99617938716802       0.02965196478415
H        -0.61792306318685       1.40545319597776       1.61011682739244
H        -2.51089890115109      -1.77517059758595      -0.15338559122641
H        -2.34445229963608      -0.43157036544806      -1.36826676431113
H        -3.08578950907166       0.79631873815707       0.53064579323431
H        -2.19460017864620      -0.29630366623287       1.67580072413527
H         1.72868977581063       1.06941091994155       1.13536115163723
H         0.96005678084880      -0.40851746378230       1.77763847469177
H         1.31163446155123       0.38054182749380      -1.91646220713828
H        -0.27219748835584       1.19679951713689      -1.98865096338900
H         1.07974040642368       1.95426770533173      -1.06641362232523
H         3.19684908981514      -0.96453863693922       1.08420303215297
H         2.10713559017299      -1.74357234419617      -0.10912065017435
H         3.00034306790510      -0.22412485300030      -0.53140042933392
Cl        2.57373678388236       2.92549087515478       3.41142924164780
