51
C13H28F2N2O4S2 optimized with ForceField in AMS.
N        -0.70275253748190       0.53140387885164      -0.20881194969512
C        -1.67701128828643       0.27087739499037      -1.31794466575355
C        -1.25744881008762       1.61093076554570       0.67252635578287
C         0.55468987297139       1.04055420949311      -0.85739419627530
C        -0.44323767087551      -0.70256647117742       0.61344616576913
C        -3.09449423359007      -0.08487193257556      -0.83863486734488
C        -2.67922612114530       1.32447486158650       1.19916191454759
C        -3.64638261229367       1.01675884356359       0.05992490968104
C         1.74762331770387       1.29972501413626       0.09532248039938
C         0.22732897620209      -1.88241824896169      -0.13309256786846
C         2.95055629383115       1.84812319867805      -0.68188740647482
C         0.44649644933933      -3.06663842331991       0.81825912448242
C         4.14232291273658       2.07649461055494       0.24168013684767
C         1.10708508905644      -4.24094602564307       0.10119213092085
H        -1.31758359877519      -0.52850401782913      -1.99815937512356
H        -1.77310883935446       1.17743368602161      -1.96090469799099
H        -1.29362882457893       2.58117175751595       0.12524262433158
H        -0.61134883323878       1.77016790725793       1.56234132067238
H         0.34428642901369       1.99604265708876      -1.39225497098570
H         0.89209582522231       0.33890783204217      -1.65279542244172
H        -1.38321326902636      -1.09173118617110       1.04948297199699
H         0.18133669926623      -0.44793365640508       1.49761759317158
H        -3.10995032370545      -1.06245337842990      -0.31467159686175
H        -3.75756745800155      -0.18713826034865      -1.72466165559623
H        -3.04660412654653       2.22050876022523       1.74456824190003
H        -2.67080963182666       0.48927256469598       1.92991633865154
H        -3.81451198188778       1.93703369241793      -0.54182075710896
H        -4.62461525384313       0.69716173306365       0.47971034754628
H         2.06156981094739       0.35863433239718       0.59118522306762
H         1.47207840660104       2.04003661643333       0.87341242755700
H         1.21353642995404      -1.58211610506502      -0.54146997763762
H        -0.41579474547408      -2.22868007213500      -0.96689671652516
H         2.68062542406797       2.81270598791066      -1.16461905196118
H         3.24635617185040       1.12767422378335      -1.47566026979488
H        -0.53006604372030      -3.40335930401366       1.22986682234684
H         1.09524214746275      -2.75400039114196       1.66539625604105
H         4.42660161446935       1.12558854068489       0.73988551772053
H         3.89275137035850       2.83305913337854       1.01537757642149
H         5.00636274390089       2.44381841808425      -0.35092680269633
H         2.10370649976324      -3.94357672763184      -0.28884063692451
H         0.47070601211738      -4.58702604841718      -0.74096561009883
H         1.24126760323228      -5.08243710865226       0.81314267976794
N         8.90145739431831      -1.09205489785418      -0.04128805246147
S         7.74340962164208      -0.15904804338440      -0.72227597379337
S        10.14445357337902      -1.68744175152333      -0.92126648005728
F         6.67420689559403      -1.13383908861450      -1.56411614507335
F        11.19027633541860      -0.44027232114082      -1.31157330272138
O         7.00325722061546       0.57748366362324       0.35623760908039
O         8.36266904516608       0.82428958383904      -1.67583277083492
O         9.62549230010808      -2.30423423847971      -2.18991041895814
O        10.87872102372974      -2.72193879954848      -0.11652797504469
