47
C13H28BF4N optimized with ADF in AMS.
N        -1.44224286584090       0.15984879919967      -0.24719845680526
C        -2.40108454469148       0.62132709306028      -1.33508238886316
C        -1.62397029184339      -1.33943868276819      -0.03203835343825
C        -0.04104386387565       0.43825617467433      -0.78091950214342
C        -1.67369075259775       0.87374227358522       1.06724468950588
C        -3.84859587089427       0.25418515066724      -1.06075394086965
C        -3.07001175367039      -1.73851243587042       0.22410688059695
C        -3.98682720071941      -1.25844535252449      -0.89828522278571
C         1.10729790211234      -0.06181655547888       0.07172031629854
C        -1.44087410087489       2.37178993271808       1.04206820278903
C         2.42311927911692       0.22860911465760      -0.65872190057139
C         3.63566012332243      -0.32429775369650       0.08428892642925
C         4.94848528878624      -0.05676641796061      -0.65004559551548
C         6.16257471846119      -0.60631236195271       0.09467838497202
H        -2.05061874734286       0.11002333061374      -2.24620437736402
H        -2.25316961738605       1.70311339905533      -1.45152992289190
H        -0.97799441685778      -1.61267080115953       0.81216475584533
H        -1.23878111017339      -1.81910471388142      -0.94337337847625
H         0.01037534367245       1.52768776836709      -0.92686066383317
H         0.00663382077353      -0.03503955424036      -1.77130432930898
H        -2.70252108389069       0.64778929804802       1.37255336068626
H        -0.99869531754215       0.39071979250581       1.78781273987330
H        -4.43772788918409       0.60933449166592      -1.92186015443182
H        -4.24079722675944       0.78285748722112      -0.17332661604055
H        -3.42863689754177      -1.37033632402943       1.20201383081926
H        -3.07910652363919      -2.83912541794799       0.28539340704304
H        -5.03254140357326      -1.53532682620999      -0.69322437186710
H        -3.68309696419253      -1.74752380539414      -1.84009200957170
H         1.12078406837094       0.40611877935651       1.07303549077974
H         1.02891412544523      -1.15335400818912       0.19086354373248
H        -0.39280207641252       2.62689896953723       0.83522749510822
H        -2.08407875846402       2.88683717987406       0.31508745458847
H        -1.68676608334062       2.77078505019331       2.03731738552185
H         2.54147850993300       1.31893318717324      -0.80432899832458
H         2.36407228146760      -0.22866034108079      -1.66106431529376
H         3.50887600699609      -1.41522594168662       0.21224811937629
H         3.68907329061144       0.11141265769978       1.10088640895095
H         4.89186708485964      -0.50739216451531      -1.65680939122070
H         5.06593425964647       1.03184049147677      -0.80153105186981
H         6.08108739872590      -1.69735071606608       0.22572447319247
H         7.09694439284643      -0.40101014334468      -0.44952569296992
H         6.24842261308345      -0.15396026136952       1.09639242759200
B         0.17179141795669      -2.07322077088677      -3.23749418267983
F         0.91191645022532      -0.89110697919155      -3.53784974187662
F         0.56469433615430      -2.53249312335663      -1.93366927465932
F         0.35186897049504      -3.06415946900733      -4.19784179234086
F        -1.23087510815414      -1.69719363494127      -3.14782954008810
