38
C12H18F3NO3S optimized with ForceField in AMS.
N         2.37044025498748       0.03488938191361      -0.51847834005030
C        -1.44470948545313       0.05311161373323      -0.69800743773826
C        -0.04548297011320       0.02435435792918      -0.07441206048601
C        -2.52619099047562      -0.01263701430810       0.38641398712705
C         1.04513120010758       0.08158267749372      -1.14804888892843
C        -3.92835733084310      -0.01347720762508      -0.23170197544012
C        -5.00461131829857      -0.05988835967918       0.84909510853646
C         2.96277998299253      -1.17374506614891      -0.27246431410711
C         2.98507638193850       1.19788076113860      -0.14209527827719
C         4.20412993440395      -1.23846813507619       0.36540129032317
C         4.22674956625782       1.16883508514548       0.49786271285382
C         4.83690367777455      -0.05836721387443       0.75314531102533
H        -1.55843275065642      -0.81384655021269      -1.38563849470668
H        -1.56747334399806       0.99039943605361      -1.28453787075355
H         0.07268275946928       0.89278663181472       0.61043502440210
H         0.07616829234482      -0.90972323334055       0.51703294574681
H        -2.39033802980046      -0.93935443932227       0.98683167607165
H        -2.42135763701026       0.86474721217053       1.06243009531826
H         0.93548721021225       1.01346249210485      -1.74697222054612
H         0.92505758922062      -0.77063449438859      -1.85408964829452
H        -4.06958031550656       0.90269409691386      -0.84450147711994
H        -4.04560658177152      -0.89848081037440      -0.89413399765786
H        -4.91324536988532       0.81700693180307       1.52492279419345
H        -6.00861211839654      -0.03985631533765       0.37562280676138
H        -4.91032044497832      -0.99235828813984       1.44563468763799
H         2.47130471261824      -2.09569458282807      -0.56019577500864
H         2.51126452111105       2.15486261314097      -0.32634487078747
H         4.66815705059921      -2.19643944601994       0.56157343210400
H         4.70844112874011       2.09057099710301       0.79760611600794
H         5.79659011791168      -0.09492321275426       1.25267059040965
S        -6.46488556068093       3.42252105836569      -1.90081366410287
O        -5.44941975889219       3.50142505643451      -3.05056336623608
O        -6.92509287856939       1.95761783162805      -1.94185051729460
O        -7.67793525465626       4.18365718000394      -2.45663893009137
C        -5.86064876273386       4.00454745977123      -0.28879060965545
F        -5.51127888467369       5.33808693997150      -0.38015892205313
F        -4.75439941936106       3.26823170601957       0.08674541599529
F        -6.85465946983522       3.85432162177723       0.65904794002133
