39
C9H20F2N2O4S2 optimized with ADF in AMS.
C         2.66793124135165       0.70021601130444       2.57380214581856
C         1.82729685785694       1.62714577554729       1.69983285553845
H         2.37018499792220      -0.11619203147794      -0.24522420748992
H         1.16317903634619      -1.32109324095875       0.31642017700446
H         3.66144760692684      -0.95235352565561       1.48867445009982
H         2.27982683768089      -1.46753713600915       2.48233390960766
H         2.24873861180687       0.61222608205852       3.58771505483549
H         3.68390641544401       1.10755565184132       2.66590498571779
H         1.25260770248038       2.39735550828599       2.23288296203319
H         2.44182514678556       2.08331745861794       0.91106972850788
H        -0.87439787553766      -0.44500811993246       1.36976107658390
C        -0.21493059453561       0.25070092358031       1.90070647287510
H         0.23810617974782      -0.25657578154015       2.75937431901247
H        -0.78543043368022       1.12586820369923       2.23687616585507
C         0.26524808466304       1.40640242755961      -0.23129099147749
H        -0.39210990813549       2.18214189126558       0.19144446533582
H         1.11125355787799       1.89482731430372      -0.73505335500131
H        -0.89189390844911      -0.39238412185770      -0.69358290098458
H         0.17002037018897      -1.03848801647183      -4.27667659602096
C         0.36080015976090       0.05737191151560      -2.41092552058298
H         0.76392123491968       0.95922598114146      -2.90439764457926
H         1.24116911616188      -0.51657254714053      -2.08730131915218
C        -0.44725372328002      -0.76557670104046      -3.40807543586183
H        -1.32197998980470      -0.20384666615770      -3.77487550701054
N         0.86227435501612       0.70410384603070       0.97244678559229
C         1.77197233903307      -0.45593586536688       0.60620863710295
C         2.65915676954425      -0.66399239502156       1.83352446841559
H        -0.81333055897072      -1.69953614311317      -2.95118764098245
C        -0.47972167448814       0.49355123803330      -1.20860594182135
H        -1.36201995654463       1.04922209863368      -1.57259163651998
N         5.43246644882683       0.50053681725297      -2.08133180335255
S         4.74160104412969       1.64907737691903      -1.23064902550525
S         4.73447944042031      -0.94231420283007      -2.24196319972918
F         5.02291901891365       1.18714618416147       0.36610012954706
F         3.50120883281562      -0.62917909715523      -3.31158305604383
O         5.48810318403189       2.87808468282162      -1.36905545742223
O         3.27423391885047       1.68829676528294      -1.26312639455283
O         4.02617027830521      -1.42879398706405      -1.06170149437244
O         5.63684767921738      -1.80621472766348      -2.96394609492043
