46
C12H26F6NP optimized with ADF in AMS.
N         1.41529344138163      -0.65582226340679      -0.19680133474409
C         2.46708669163122      -0.61617966629373      -1.30584080423963
C         2.03508224131693      -1.54888813865530       0.89333957612916
C         1.15356612929770       0.73500840892045       0.35125106755609
C         0.15675794029235      -1.29616815144138      -0.73975933140066
C         3.16956185335938      -1.95748846337122      -1.22733504416637
C         3.28553977969919      -2.19373212622288       0.28244338683564
C         0.61279244874199       1.71664789381846      -0.67282425917487
C        -1.01819844670437      -1.33095460358927       0.22340892468768
C         0.66235405246805       3.14124960872094      -0.10821427673263
C        -2.14805338469032      -2.20218578001559      -0.33406680357847
C         0.12514582615216       4.16996466389279      -1.09908872948965
C        -3.36204872307424      -2.22742863300542       0.59046620498983
H         3.16249009448994       0.19676415980053      -1.05592169337078
H         1.96594359164789      -0.40891526337032      -2.25931086976337
H         1.27074613300274      -2.27740816023361       1.18923855446535
H         2.28282286780985      -0.90615434731360       1.74555467642387
H         0.46450305013721       0.61359173635555       1.20061976308320
H         2.12530612504396       1.07661952617182       0.73248928229720
H        -0.11307999018651      -0.73767141932505      -1.64795582919556
H         0.44317306198786      -2.31542252453709      -1.04182179115691
H         2.59404322725972      -2.75174062059384      -1.73078529793200
H         4.15767217486593      -1.89128782310235      -1.70547660698111
H         4.17493317270616      -1.67176897251784       0.66089212763267
H         3.35667804372562      -3.25976870539617       0.54107063529583
H         1.23490501770109       1.69055463666439      -1.58328648900735
H        -0.42442430994253       1.46850071193475      -0.96525824988699
H        -0.71138120511273      -1.72680884498643       1.20718695049969
H        -1.39973974905926      -0.31021122441176       0.39385207245050
H         1.71083155006448       3.37248451202862       0.14506563651836
H         0.08466429495833       3.18739132975272       0.83233813990627
H        -2.44356906098499      -1.82495433710959      -1.32955939953388
H        -1.77213302510924      -3.22983273732348      -0.48707423745107
H        -0.93048909424340       3.97642880691971      -1.35013088809082
H         0.70603186495366       4.15232608371179      -2.03462472258192
H         0.19223810796379       5.18776937052788      -0.68590863089545
H        -3.77003101656946      -1.21494659472859       0.73425706421677
H        -3.09453404259337      -2.62667267264148       1.58121148303823
H        -4.16405424182769      -2.85793501115347       0.17858721397370
P         5.18628190106072       1.54037888405017       0.66303759744010
F         4.94879002485537       2.79512304899336       1.68849205339198
F         4.05588940837433       0.63633169967775       1.54233459839809
F         3.91023311530783       2.09360098041304      -0.29269126206122
F         5.33327544413463       0.24067553300202      -0.38246670895128
F         6.23959309317362       2.40183823345790      -0.23757547176387
F         6.38199065883277       0.93047317243159       1.59667361481971
