25
C7H10F6NP optimized with DFTB in AMS.
N         0.24124013318998       0.10176849035193       0.16007217095770
C         1.58231314572798       0.31942143007731      -0.40460259564352
C        -0.46180192688701       1.14300781960736       0.62991246172201
C        -0.21545039251556      -1.15594609892048       0.28903414052823
C         2.66351931899043      -0.08461412144390       0.59207258587830
C        -1.70797866490297       0.94955146516044       1.19430134633724
C        -1.44685218179433      -1.40094894254114       0.85381706661339
C        -2.21038694805220      -0.33628131084441       1.31731187247442
H         1.65616682826706      -0.27271745313213      -1.32168484536611
H         1.66872025617350       1.37830299204196      -0.65927373481596
H        -0.01524997707451       2.12414948609969       0.53673979298115
H         0.42780913739869      -1.95068081202704      -0.06722912920465
H         2.56384954236848       0.48424393131425       1.51389674247563
H         3.63776506793642       0.11503692032136       0.14822427398754
H         2.58726221813962      -1.14419051039310       0.82885936011651
H        -2.25035260446350       1.80241644636007       1.58009954768980
H        -1.78966193313718      -2.42233953580084       0.95573991259084
H        -3.17085424782587      -0.50856545277731       1.78627681695608
P         0.77280090194699       0.15757940255575       3.86274972654780
F         2.40987640398195       0.21697356166907       3.90221681147329
F         0.79838127223976       1.35044779682188       2.65398011525834
F         0.87236719133161      -0.99731036462021       2.64486068341203
F        -0.87842933888769       0.10965946397541       3.71234567298982
F         0.73483904275559      -1.01995249414247       4.98051825548460
F         0.65754162259277       1.32261209988656       4.99014588125550
