48
C14H31NO2 optimized with ForceField in AMS.
N         0.00467503270302      -0.00245592996528       0.00729825151804
C        -0.85229189404124       0.63173783772236       1.07087264378291
C        -0.83320076461223      -0.64432210968540      -1.06708655595244
C         0.85275215768503      -1.06673489226563       0.65220501688533
C         0.85109151224016       1.07010722728292      -0.62611213036631
C        -1.92138597723457      -0.28735013326978       1.71583144260922
C        -1.90501208994516       0.26413598219395      -1.72330439990745
C         1.93165668603683      -1.71475273438625      -0.25222028577390
C         1.91445902578437       1.72519948763909       0.29217638656453
C        -2.73629538712209       0.47944544553038       2.75465304900673
C        -2.69894633164177      -0.50886661104359      -2.77400500683672
C         2.73717099293142      -2.75085998980659       0.52885710113776
C         2.71603768693547       2.77464777049872      -0.47478963292791
H        -1.36122836373097       1.53813402896192       0.67383501799112
H        -0.21607476575210       0.99572234002908       1.90634014131438
H        -1.33717582834383      -1.55646031732624      -0.67708836975614
H        -0.18326029048095      -1.00082341535666      -1.89529203329218
H         0.21152654186536      -1.90093990895166       1.00996869663294
H         1.35185395359154      -0.66876342456765       1.56323816263484
H         0.20651258963140       1.89936551022073      -0.98959688929494
H         1.36399089946621       0.67863167597314      -1.53274360879828
H        -2.62960535665075      -0.68022340115117       0.95963402163411
H        -1.44507085282984      -1.14393808153629       2.23388183973999
H        -2.62701339242405       0.64711403906433      -0.97511968147793
H        -1.43237155008230       1.12768977056940      -2.23298450119609
H         1.46403152909001      -2.23482519519961      -1.11241805697152
H         2.64456353587923      -0.96041864854328      -0.64013699177874
H         1.43381160032325       2.23573196591918       1.15073579178728
H         2.63194520304750       0.97631624586983       0.68221894199818
H        -3.49383823745669      -0.19496462469833       3.20671214599831
H        -2.07437891872711       0.85929178668736       3.56205926778839
H        -3.26214743343410       1.33430827666696       2.27863747738123
H        -3.45751908072024       0.15872420079621      -3.23457091809646
H        -2.02337547180443      -0.88057739345475      -3.57383626822811
H        -3.22230406881819      -1.36979481681098      -2.30632186354238
H         3.49520227211784      -3.21391370478458      -0.13747570128068
H         3.26170226525052      -2.26933601282037       1.38131174645592
H         2.06947269762983      -3.55068575474903       0.91465180027630
H         3.46887252020290       3.23550632137604       0.19889797504042
H         3.24652735758289       2.30582473973196      -1.33078406953243
H         2.04424728335185       3.57440720069943      -0.85361312942742
C         1.87546669335087      -2.10501469564946       4.46714501429601
C         2.73024759896839      -3.30213311782893       4.74011478484461
O         2.31000135575647      -4.20151636535125       5.44976109755808
O         3.84811229611617      -3.38345316476162       4.25713333096344
H         0.95501910260501      -2.41812326779513       3.93097193172378
H         1.59433083977707      -1.62239496285886       5.42681847135321
H         2.42231369983198      -1.36720922291464       3.84219227732093
