35
C11H17F3N2O2 optimized with ADF in AMS.
N         0.24931334830611      -0.94918847583335      -0.60970036480585
N        -1.62602197500040       0.13925198014037      -0.77337034219741
C         1.53815574240479      -1.45573779283293      -0.09999558166146
C         2.71247180934948      -0.49393784719339      -0.23647247691335
C         2.69179203655635       0.69102436633388       0.72970581722726
C        -0.49682412293304       0.02150750491469      -0.06459965526459
C        -0.40090221275413      -1.41986463147375      -1.73250832178642
C        -1.57521881580443      -0.73702081548359      -1.83585812302837
C        -2.66870228677821       1.15202715338189      -0.54676525135476
C         4.01168455588389       1.45988026806451       0.69854556584123
C        -2.68763218649511       2.20215118159115      -1.64569795971602
H         1.37729904225319      -1.73612377598685       0.95408342967818
H         1.72710688857224      -2.38032067233566      -0.66456513913835
H         2.78684462255635      -0.12161860595952      -1.27205383298610
H         3.61539742128379      -1.10362180514108      -0.04380345477239
H         1.88906787196672       1.38685161098478       0.42934183134505
H         2.48990435715236       0.32474648300706       1.75596098394744
H        -0.22795727821520       0.61339006485576       0.79818816397844
H         0.03046661882270      -2.18546121030489      -2.36362004237981
H        -3.62717282849165       0.61514451577578      -0.45829037410853
H        -2.44653278130774       1.60728086055091       0.42899554338115
H        -2.35900353375112      -0.78925696718924      -2.57989858342928
H         4.14243340540453       1.90782794558896      -0.29773349384546
H         4.86627442782277       0.79694091572927       0.91391732497711
H         4.01312514601190       2.26947943025552       1.44456093608730
H        -1.67734824833856       2.62337180679288      -1.75802249910895
H        -3.41127201069526       2.98649625460847      -1.37889972976819
H        -2.98881228421156       1.76673088878661      -2.60914372757152
C         1.34234077900521       1.88766395373853      -2.30326178171865
O         2.57533117209262       2.02514882893017      -2.20689847826521
O         0.41235339833562       2.04078498257487      -1.46435346511850
C         0.90100390799325       1.35722294643077      -3.71759904840121
F         1.29393231660396       0.03533519449715      -3.86513472908359
F         1.46644571728286       2.04857493932689      -4.74407903110779
F        -0.45709751738424       1.36757632387335      -3.94248672303139
