36
C10H20F3NO2 optimized with ADF in AMS.
N         0.38240454311733       0.21739590658523       0.17616486850014
C        -0.60662043086337      -0.30290813704571       1.19874650044875
C        -0.26744068352476       0.37368239458703      -1.18279851501441
C         1.55156968587408      -0.77184684363867       0.08042228565288
C         0.92020962651348       1.58543024520114       0.62659913561621
C        -1.36488696000946      -1.56003341398081       0.80954768507729
C        -1.57544910514618       1.14535619172107      -1.20875306578942
C         2.45187205545433      -0.59545951546909      -1.12496857986468
C         1.21185724232469       1.71043361285313       2.10686059496901
H        -0.01798262740181      -0.48110313118952       2.10866294279499
H        -1.30145491324123       0.52416024007999       1.40553694900020
H         0.48305459907357       0.87400853513458      -1.80955512341568
H        -0.40758147139985      -0.64342746339219      -1.57751235092361
H         2.16247695134648      -0.62394010637457       0.99466892406434
H         1.09895589764151      -1.77248360122741       0.08145485362202
H         1.87302369624911       1.72616755959547       0.08937279648086
H         0.17695004485385       2.32629017368370       0.30238155947290
H        -2.04412278832262      -1.80816979151993       1.63974291643392
H        -1.98144133483699      -1.43403338460339      -0.09060257824521
H        -0.70512975969519      -2.42590886744051       0.66645599165755
H        -1.91012869963163       1.20060096213462      -2.25619347157811
H        -2.37471363831638       0.65748556153932      -0.63489577214684
H        -1.46725524756258       2.17806074307956      -0.85131815702524
H         3.29390543851078      -1.29056411120634      -0.98043597410843
H         1.96938913168348      -0.84410529939566      -2.08106701412216
H         2.90239979992439       0.40735852338640      -1.15320921778371
H         1.72284808742675       2.67714111109419       2.23634078659494
H         0.31052405105383       1.71251117069046       2.73602234524166
H         1.93312874123084       0.94470983679388       2.43630368848976
C         4.41477117401242       0.75272108706467       1.35405977256568
O         3.82272923689517      -0.16614612601341       1.97906523420174
O         3.97670426572081       1.61301918098222       0.55089707103283
C         5.96432722188813       0.81022360731326       1.57054688395668
F         6.60162014816773       0.18291615276055       0.52116707855245
F         6.38401689995626       0.19091535855753       2.71151002696134
F         6.44458057533303       2.08914383415918       1.61628348722938
