44
C12H26BF4N optimized with ForceField in AMS.
N         0.97354903774180      -0.30806763532024      -0.00603391865311
C         2.03783329238108       0.07379360867463      -0.98501412015408
C         1.64892873425135      -1.23065986600527       0.95815618945996
C         0.48559250148577       0.90539732906285       0.72740405978802
C        -0.12721609647492      -1.02614996864419      -0.72767802148475
C         3.24331205907438      -0.81359006337740      -0.74611155494073
C         3.14397639472338      -1.16253164898072       0.71139672406997
C        -0.25797015400200       1.93705637634912      -0.15548307454674
C        -1.31172177157713      -1.46222679004731       0.16807047109728
C        -0.56945424910756       3.20803048261425       0.64335127099107
C        -2.30956801855046      -2.30662813889407      -0.63353030831995
C        -1.30499457458739       4.23631230545837      -0.21110044508276
C        -3.49227732719355      -2.74075253299180       0.22710419485271
H         2.38055545523973       1.12508372294578      -0.84844168090923
H         1.71433988474887      -0.01156351089475      -2.04740415502855
H         1.34638993845014      -2.29239052912731       0.80836979037558
H         1.43129952419630      -0.99339054671035       2.02438322846603
H        -0.18831265922652       0.61304087134663       1.56266283485589
H         1.34864617322066       1.41626435239130       1.21538888241954
H        -0.52864092320119      -0.39679740331063      -1.55246424343406
H         0.28659537501390      -1.93271684795975      -1.22843150737849
H         3.16443884375100      -1.73626818552252      -1.36292353144364
H         4.19241701455311      -0.28822936905348      -0.98081224388400
H         3.59326158667138      -0.35166317510126       1.32734190882430
H         3.64813365258694      -2.12761885560074       0.93682722718158
H         0.35521192425144       2.20884691916573      -1.04022801244239
H        -1.21769650984797       1.51045903365800      -0.51467992937560
H        -0.94887750602438      -2.05599666224933       1.03330914344280
H        -1.84690417188550      -0.57055271501221       0.55593064005678
H         0.37618295848906       3.66113667013241       1.01319913573998
H        -1.20297677420468       2.95100428550318       1.52026183989217
H        -2.69134054954841      -1.71469380443738      -1.49397186534406
H        -1.80237477361476      -3.21387888061215      -1.02852731860126
H        -2.26307097963245       3.81539184328409      -0.58406450685185
H        -0.67625556693704       4.54068296869270      -1.07468137609356
H        -1.52742013024718       5.13636230608930       0.40068685562877
H        -4.02842160081530      -1.85271610395899       0.62473119576980
H        -3.14316499271349      -3.36954407298693       1.07343656346712
H        -4.20011560526703      -3.33546551900047      -0.38875216759270
B         6.92457986728750       0.57023728350214       0.26142059776090
F         8.34142215255179       0.66458353526606       0.25881236415623
F         6.40297240357083       1.26369410528444      -0.86313144117408
F         6.41271007758714       1.14882139805268       1.45310682899272
F         6.54270045163137      -0.79620760527440       0.19700755694639
