46
C14H26F3NO2 optimized with DFTB in AMS.
N        -2.39113288135926       0.30528958780065      -0.14804031176438
C        -2.81419184509883      -0.72133998770447      -1.17021893599511
C        -3.56765621703946       0.40873714111427       0.77819055235738
C        -1.20246205941897      -0.17601275923675       0.64448753517294
C        -3.86108790685893      -1.61257201155448      -0.50223322431332
C        -4.10282787165152      -1.01171449011088       0.88377064200232
C        -2.12213789812634       1.60664933349849      -0.83416239374287
C         0.10130893549963      -0.28260883958902      -0.14068316077198
C        -1.70592605855332       2.72785055528227       0.10675155467308
C         1.17382722386067      -0.89202810860349       0.77184478234862
C         2.44758161808067      -1.20643531809886      -0.01688805477176
C         3.48706037213676      -1.89386254969708       0.87356025350723
C         4.76158087223834      -2.21338246012005       0.09468720487431
H        -1.94121807645222      -1.29583971362208      -1.48162386887111
H        -3.22978669711200      -0.19075703231065      -2.02897996184003
H        -4.30249563976384       1.07173225050309       0.31313257147349
H        -3.25109518677615       0.82880223230881       1.73267446565409
H        -1.47688501459811      -1.16227989016644       1.02957375730874
H        -1.08131540506181       0.50828867029051       1.48795824515778
H        -3.48342153441501      -2.63163809267249      -0.41228544925761
H        -4.77750427261237      -1.62378075288904      -1.09587567747827
H        -5.15951632670644      -1.00435666238882       1.15427417286009
H        -3.55029932662064      -1.58077418674227       1.63457028195103
H        -1.34389808896152       1.42510473004122      -1.57854330159130
H        -3.04125700706820       1.88681942247875      -1.35587798207004
H        -0.03191006496893      -0.93484227914912      -1.00620419294424
H         0.43513633165010       0.69854807066783      -0.49262410847619
H        -1.61043984425149       3.64082077175201      -0.48058731625086
H        -2.45303059348002       2.89385609188159       0.88128874054216
H        -0.74622343746646       2.52378916494720       0.57725377503686
H         0.78921295799136      -1.81622723575930       1.21174899160411
H         1.39923103313817      -0.19832656387792       1.58951236028839
H         2.86445251099762      -0.28070921002930      -0.43036399214280
H         2.19594211331940      -1.86526755528720      -0.85442037224895
H         3.73006228100434      -1.24421814327468       1.72187890450081
H         3.06195355324941      -2.82080074014645       1.27028800769740
H         5.21086749665569      -1.30018521063492      -0.29978361199845
H         5.48533546100199      -2.70265134953222       0.74708474444917
H         4.54074580295076      -2.87985529153821      -0.74011388737740
C        -1.09115654200907      -3.51686661320747       0.26494547883134
O        -1.80067376495606      -3.13361688107721       1.19990636242136
O        -0.98255153219973      -3.08920961331361      -0.88484300483223
C        -0.10465624539179      -4.72916400077729       0.62604870591304
F         0.17372835060150      -5.51125829527979      -0.42525819203871
F        -0.57646180065585      -5.52115220571379       1.59808805795738
F         1.07903457795795      -4.23522043776136       1.06727405099450
