26
C8H11F3N2O2 optimized with ADF in AMS.
N        -1.35040841969444       0.61324106698966      -0.42082768898656
N         0.01777850348030      -1.04727710621927      -0.16155301900060
C        -2.52066248085269       1.38423528811001      -0.86945704015625
C        -1.09157183650165      -0.64608321667310      -0.79928910540736
C        -0.39836506684874       1.01917238194142       0.49265933962247
C         0.46270580324152      -0.02802310364430       0.65521367524095
C        -3.48228988028342       1.66206956012080       0.27094142211784
C         0.53527221666999      -2.41079455910209      -0.23020615934505
H        -2.14372706900087       2.30817665129400      -1.33596121947641
H        -3.01177511862515       0.76631522931861      -1.63267163407263
H        -1.80288519415509      -1.25843535872452      -1.36253990969117
H        -0.41295314079316       2.00279857157527       0.94341902306888
H         1.33758914001099      -0.13891084541637       1.28291532734584
H        -3.86324817540652       0.71466982646299       0.67561578606510
H        -4.33298676497357       2.24190287632954      -0.11586507319326
H        -3.01031288613479       2.24598552418251       1.07456133185319
H        -0.30385359967399      -3.07825474008216       0.02136719899819
H         0.90964417845238      -2.61196472329720      -1.24154261983451
H         1.35236763454576      -2.51197081578185       0.49164353316220
C        -3.44896857375962      -2.24944846811127       0.12269965885358
O        -3.71393156644560      -1.51743988940593      -0.86855459167469
O        -2.38152562580189      -2.81880623758262       0.45086270761932
C        -4.64100545713357      -2.41654878956410       1.12340847532578
F        -4.83840676600338      -1.23858558242376       1.82139612633023
F        -4.43873248575900      -3.38785575771061       2.05282416043838
F        -5.81596029435381      -2.69920960448565       0.49043859719654
