43
C11H21F2N3O4S2 optimized with DFTB in AMS.
N        -0.74013305387417       0.00781484701638      -0.86221673870221
N        -1.96077257203653      -1.76037069509033      -0.69082594004341
C         1.28285203524802       1.45066589763160      -0.66947059634387
C         2.24803109729386       0.27083380620542      -0.52767546329582
C         0.03865223601748       1.08568187605318      -1.47826504110733
C         3.48860918434596       0.64989333394235       0.28385578377632
C         4.41555575671277      -0.56019934199389       0.43954004124765
C        -1.38891395334531      -0.92616965003088      -1.55626061464150
C        -0.89803542389923      -0.24128559706490       0.47497402999364
C        -1.66643302956794      -1.35768402714230       0.58065996695363
C        -2.76237296133686      -2.92763254138962      -1.04955296927051
C         5.65577863373791      -0.21290632885637       1.26034578045762
C        -4.20262432049477      -2.50832990519441      -1.31384533025926
H         1.77638120038626       2.26983536407110      -1.20151100505238
H         0.99141320420912       1.82585047838510       0.31647545955425
H         2.54769165469645      -0.06942763923990      -1.52294606156219
H         1.73534483436928      -0.55993111399943      -0.03504793827297
H        -0.61770574122860       1.95712970875361      -1.57767189061430
H         0.32342788546321       0.73744949713809      -2.47517404821126
H         3.18336433128433       1.00838246801805       1.27361722034158
H         4.02345168428048       1.46435594701484      -0.21684333342028
H         4.71986258488585      -0.91293106575552      -0.55114518290799
H         3.86985119573402      -1.37298969573262       0.92967467593421
H        -1.41696363666203      -1.00939274812353      -2.62903868643596
H        -0.46011056907171       0.37637324165935       1.23790472766659
H        -1.99433615091753      -1.90471320974251       1.44690754615184
H        -2.31237542198058      -3.38072963209708      -1.93529644961270
H        -2.70252980508479      -3.63648635479885      -0.22145315487781
H         5.37277128697969       0.12057463377653       2.25994635930459
H         6.22496835300074       0.58298325073052       0.77744874814284
H         6.29693410138297      -1.08934267306963       1.35557707228169
H        -4.63712664203108      -2.04880130069328      -0.42616509116480
H        -4.78659046968717      -3.38864167997795      -1.57767330207076
H        -4.24747390385296      -1.79564608809238      -2.13709957264467
N         0.98388538896669      -2.51665596465851      -1.13608699648500
S         1.03934253917035      -2.68100328415561      -2.70794342954059
S         0.63296178457462      -3.78227740810542      -0.23610825294727
F        -0.50628137743091      -3.09406885139370      -3.11986722180995
F         1.94251926023632      -4.70886472520154      -0.29392219709282
O         1.15738727863673      -1.35683573963997      -3.24646035987936
O         1.83276979038980      -3.73010040648201      -3.24536528347928
O        -0.42921998089678      -4.61291489720277      -0.71654199105772
O         0.56490337459601      -3.31264851567121       1.11241120689755
