47
C13H13F18N2P optimized with DFTB in AMS.
N        -0.78287214857081       1.15556348211721      -0.27141871478584
N        -1.86277416138975       2.90615959166245       0.36893062069370
C         0.20860726676763       0.32376302912908      -0.95902590054677
C         0.73330757892872      -0.80890839011262      -0.07669272859946
C        -0.87547107242584       2.47748904487008      -0.41181895965299
C        -1.73368324004792       0.73419426403497       0.62024369897477
C        -2.40807507107625       1.84097933162868       1.02873547151908
C         1.40449632687970      -0.30470215988699       1.19786201816960
C        -2.20266618546966       4.30007119236187       0.60765119446828
H         1.02602170205481       0.98556255829887      -1.25775405933154
H        -0.26318205389906      -0.08598592471661      -1.85863069001569
H        -0.08358115257910      -1.49357348086676       0.17080353244138
H         1.45903891249708      -1.36513423736679      -0.67745943323797
H        -0.25370289858973       3.08932253720478      -1.04282313496011
H        -1.85860643408547      -0.29851146850033       0.89166150480845
H        -3.21369577361698       1.95584795871574       1.73235985473457
H         0.70122579728198       0.25799316890239       1.81104122608090
H         2.24605558401367       0.34213167125331       0.95552497954410
H         1.77028054420653      -1.15187410265725       1.77682089158890
H        -1.84713923297246       4.89940229264373      -0.22723240556510
H        -3.28237324372298       4.39247194078967       0.71224046994544
H        -1.70751489780897       4.62751150438353       1.52324912910956
P         1.58605708193984       5.00335965758592       1.83670703815626
F         0.20420393422827       5.43463791504582       2.71153352291555
F         2.54316650556398       5.93234430220766       2.82366732942366
F         0.61499580483054       4.00838261797454       0.80875700349925
C         1.71728127524069       3.45541934226603       3.03897366304495
C         1.10788156088812       6.52609572303297       0.69092843206485
C         3.19789480054825       4.47513125539999       0.77949697769264
C         0.44902742114761       3.03299112058964       3.82998953507395
C         1.40878426815800       7.95412024622773       1.21549154370591
C         3.05310982963170       3.61042497531360      -0.50759780651512
F         2.69800082857405       3.59381531934100       3.93895061108930
F         2.01658530587200       2.37089081004618       2.28246725732855
F        -0.22962087771702       6.47740728414669       0.47677256609613
F         1.67724035999216       6.42652914909604      -0.52255445322960
F         4.03896686070386       3.79413229120641       1.58072120586196
F         3.83819372574865       5.60204508771573       0.41610229858423
F         0.63073301049099       1.82307709035483       4.37002958881731
F        -0.61635465633152       2.92826281328314       3.01517249611501
F         0.14473940763391       3.87205396699306       4.80568765785669
F         0.88731748342670       8.14228228602202       2.42299198909138
F         2.71581924324367       8.17721501602928       1.27514902948246
F         0.87400355428277       8.86274097695034       0.39414259558350
F         2.11996440683861       4.07149465412452      -1.34485812274876
F         2.70181100217295       2.35019170435837      -0.20863755603402
F         4.20106994611607       3.55388701099925      -1.17596833583924
