38
C8H20F2N2O4S2 optimized with ForceField in AMS.
N        -0.02528246923716      -0.00788376245746       0.00353249572341
C        -0.87663324023426      -0.27014753847829       1.21635565492734
C        -0.86855295439043       0.24009496622846      -1.21773083105819
C         0.83450306611361      -1.21687345575209      -0.24831980448829
C         0.80959438706736       1.21643589643027       0.26433487685734
C        -1.92855099718114      -1.38801610677662       1.07102911239281
C        -1.92980974241204       1.35090037776777      -1.08649998299337
C         1.89587322493171      -1.06641796945993      -1.35709241383760
C         1.87830181062916       1.07918338135621       1.36819322023931
H        -0.24179531687158      -0.56152433058039       2.08052780060742
H        -1.40463346046040       0.65436102171935       1.53826387908320
H        -0.22893422633260       0.53293532525814      -2.07802467634256
H        -1.38482513692844      -0.69102319460034      -1.53939598641160
H         1.35432787054928      -1.53447864692425       0.68236930015353
H         0.20730071280092      -2.08469443941880      -0.54543715986772
H         1.31665585304019       1.55407487629333      -0.66544572143128
H         0.16501199792666       2.06819200275554       0.57092835347842
H        -2.49971257202745      -1.46421242957515       2.02025338871260
H        -2.66184504389116      -1.17462708276417       0.26914754758326
H        -1.45553123922791      -2.37466911218666       0.89703836202892
H        -2.49811778985363       1.41440957020578      -2.03832628793049
H        -2.66360996837473       1.14018260688124      -0.28443644933211
H        -1.46398227886956       2.34250344281548      -0.92026659106572
H         2.49306957175591      -2.00112250163627      -1.40866114880618
H         1.42968984834951      -0.92310205909024      -2.35197865877282
H         2.60356985922005      -0.24060891288229      -1.15358077753066
H         2.43014089823592       2.03898787771934       1.45137998232012
H         1.42154405303923       0.88147163110886       2.35786458724838
H         2.62623287732564       0.29596526554245       1.13671501221307
N         5.79499962425743       2.38026647057206      -2.70994728479284
S         6.05647627923239       0.78237799206631      -2.94561423040381
S         4.28260172492353       2.97745382139970      -2.52996351711292
F         5.69261978974696       0.39391082081282      -4.53225936887791
F         3.71806063979494       2.58735992011384      -1.00494881175343
O         7.49924203294557       0.46353131929165      -2.67440499886201
O         5.17829473111072      -0.02554781238947      -2.03195776903009
O         3.36563733506075       2.37816139084166      -3.55947180621261
O         4.30985795233506       4.47182851319215      -2.68171191935494
