38
C12H19F3N2O2 optimized with DFTB in AMS.
N         2.33934669288213       0.78368595214960       0.60758513405837
N         3.16628829922667       2.77024513398713       0.64438853924314
C         0.63564240886362      -0.99521111444925       0.50798321683184
C        -0.40617111670710      -0.09879177418711      -0.16909092341039
C         2.05903237702218      -0.57463455475760       0.15325795275503
C        -1.83039020680966      -0.53047656316427       0.19260597121393
C        -2.87148862541437       0.36301457237700      -0.48915761018447
C         2.82266941521861       1.76180322464768      -0.15462359753407
C         2.41413422435666       1.15848074471002       1.92200217061425
C        -4.29346613114532      -0.06988698811725      -0.13647952222584
C         2.93761932692399       2.41135634705067       1.94522735097480
C         3.97115394208148       3.91228802443452       0.24776874217320
H         0.50264519031467      -0.96389729647456       1.59335895908154
H         0.50112827865050      -2.03063360070001       0.18316434958481
H        -0.27326292364903      -0.14342977847721      -1.25561132110049
H        -0.24815716097570       0.93965209628007       0.14323250495196
H         2.22202487209869      -0.60299593735798      -0.92641729381663
H         2.80013161566869      -1.21734063811532       0.64127503944974
H        -1.98392170945799      -1.57078093360603      -0.11355109427771
H        -1.96004699919278      -0.47978605061758       1.27914746858522
H        -2.71894014901019       1.40209379808229      -0.17742031997595
H        -2.73532883567394       0.31665393667418      -1.57498197945493
H         2.93875520922949       1.73304398852656      -1.22408582117736
H         2.13654813658531       0.49594869772229       2.72145902351874
H         3.19920727292827       3.05447794095618       2.76594636745865
H        -4.45278037585866      -0.01777327155678       0.94144684057712
H        -5.01540442908245       0.58371735283773      -0.62639251247606
H        -4.47336142635142      -1.09447795582421      -0.46463369729424
H         5.00420723992885       3.68727720993245       0.52644237618920
H         3.89677227224316       4.04833445253115      -0.82910998387995
H         3.62411774254869       4.80263692134417       0.76991914499225
C         5.27238728220610       0.66698686774688       1.20125065355935
O         4.67719862301623      -0.30333094788629       1.65165862216545
O         5.56280355421146       1.76444497513057       1.65998088124012
C         5.63203970391849       0.52284833514798      -0.39715444162639
F         4.71334943161042      -0.25468192361211      -1.03179899824224
F         6.83391583439628       0.02103751452107      -0.69132133940574
F         5.54739406009794       1.73305089821337      -1.01500762673627
