62
C18H36F3NO3S optimized with ADF in AMS.
N        -0.74455831711488       2.14578760431387      -0.51479716168021
C        -1.41531493711883       2.56673842283309      -1.80465995885772
C        -0.45231082448070       3.39377806517664       0.31518213051562
C        -1.61779780852908       1.19555733694868       0.28702167805250
C         0.57176001040996       1.48363964204850      -0.88560614236996
C        -2.68830945305598       3.36297622001437      -1.57240026591142
C        -1.69141889849948       4.23355120946550       0.56962723187661
C        -2.40981355246893       4.60691871853324      -0.72618802527248
C        -2.02322039067942      -0.07881333240613      -0.42899013114607
C         1.34181301034191       0.87659116789921       0.27021103337089
C        -2.72679885226806      -1.00329167634451       0.57024015546548
C         2.69076590014108       0.34346581479316      -0.21600539048345
C        -3.12161292305069      -2.34307895540446      -0.04355516961721
C         3.50056912478883      -0.25755360414600       0.93076835342538
C        -3.77825408502959      -3.28001731716173       0.96852926738283
C         4.85238277296298      -0.81208211635257       0.49012857439462
C        -4.16875704773063      -4.62816801368656       0.37011517852292
C         5.64887385885525      -1.39860560512979       1.65284978326861
H        -0.67099292463713       3.17738599002561      -2.34190139854272
H        -1.59446545980471       1.65331207603957      -2.38944325525336
H         0.00195560952492       3.07160381106756       1.26484028306098
H         0.29310324642637       3.95718206527306      -0.27122534408947
H        -1.06190550801318       0.95659661489800       1.20422205980152
H        -2.49916237217735       1.76330462618636       0.60543017516285
H         0.33295592805077       0.72276030793661      -1.64507652892051
H         1.16372812984809       2.27126407952369      -1.38034142264664
H        -3.08939698321445       3.63986499473336      -2.56194400490266
H        -3.45299882091431       2.72827297885796      -1.09345654112724
H        -2.35176470504035       3.71329770412927       1.28139432067509
H        -1.35025588420332       5.13499505302618       1.10482454100733
H        -3.35071149092715       5.13642088349534      -0.50620161022733
H        -1.77903808293339       5.30219762610137      -1.31216045034049
H        -2.69870734027847       0.12466053364596      -1.27931954521688
H        -1.14060178311929      -0.60708523732151      -0.82859418264975
H         0.77399966727834       0.05402151149250       0.73244195126332
H         1.50395830662259       1.61288432406536       1.07371099983718
H        -3.62438789208950      -0.49793662719916       0.96990745906083
H        -2.06093812503829      -1.16390916173314       1.43609205924362
H         3.27157908327354       1.15976421715503      -0.68544771525727
H         2.53468313315793      -0.42274254074524      -0.99946502688202
H        -3.81122042568349      -2.17813433007913      -0.89351192846265
H        -2.22189281214669      -2.83346168602149      -0.46208930280190
H         3.64977786298987       0.51390219787964       1.70752424527582
H         2.90974214962628      -1.05887587764344       1.41066990158353
H        -3.08495030859078      -3.43351526704443       1.81469600085586
H        -4.67280852605791      -2.78590099008941       1.38938554433986
H         4.69501322965796      -1.58789027823655      -0.28203444059997
H         5.43749006438577      -0.00730805429091       0.00769421397588
H        -4.63757168454674      -5.27806398948887       1.12402931833181
H        -3.28584521002027      -5.15509329933253      -0.02706053204758
H        -4.88424613257759      -4.50193748909311      -0.45878915682462
H         5.84075455781148      -0.63315738057603       2.42164985755800
H         5.09184765223739      -2.21851941758792       2.13450850150663
H         6.61898609583756      -1.79644013300816       1.31900005870020
S        -0.48865325947514       1.78135660188119       3.64985498452403
O        -1.76905996436423       2.46973725687891       3.39651455333511
O         0.71500881457233       2.56375532268562       3.28924823971589
O        -0.44855453350702       0.36786600082190       3.21166941412356
C        -0.41356967978529       1.66618966214047       5.52245220113178
F        -1.48114378821163       0.97622117822738       6.00710376420278
F        -0.42656882584418       2.90477013481315       6.08318325135489
F         0.71530283032696       1.03009919731549       5.93558921372778
