38
C12H18F3NO3S optimized with DFTB in AMS.
N         3.15080869370928      -0.24292628814898       1.01099475684960
C        -0.26369318030335       0.23016594591423      -0.59326530792998
C         0.76169139486943      -0.04553885050702       0.51041263993934
C        -1.69333715790805       0.16421874182981      -0.04817563452054
C         2.18032831967717       0.02439360900618      -0.05534292109859
C        -2.71898089474883       0.44033926351028      -1.15226336377849
C        -4.14711620579604       0.37572407430011      -0.61393599562397
C         3.59697924087479      -1.49528965270356       1.19342374833788
C         3.67695711541623       0.78519826945113       1.69549228412601
C         4.52484936041667      -1.77206101790324       2.17736931466797
C         4.60665102105440       0.56063884843482       2.69005541265112
C         5.03623368270239      -0.73460776653950       2.94316007813217
H        -0.14080637207484      -0.50678717511201      -1.39348475165871
H        -0.07809206835330       1.22111293782095      -1.02000977751408
H         0.65460348922292       0.69140798800671       1.31315587078832
H         0.59168344551375      -1.03831049302171       0.93979567221289
H        -1.87435914013978      -0.82771229535198       0.38036013080198
H        -1.81153403476609       0.90075820672631       0.75424720663492
H         2.39504698050971       1.01220335859427      -0.46831598042528
H         2.33114374397681      -0.71701572290981      -0.84277326039849
H        -2.53483491707240       1.43179562463662      -1.57927977042870
H        -2.59759132207721      -0.29651437986438      -1.95323190680279
H        -4.29352013124709       1.11757762818254       0.17246079675785
H        -4.85762214014433       0.57511932974936      -1.41624971292237
H        -4.35635208191382      -0.61251632987572      -0.20186564645198
H         3.18623389358587      -2.26297794707191       0.55142201576659
H         3.32932276525210       1.77680742220527       1.43828756461004
H         4.86736344485838      -2.78987951139096       2.30912594663319
H         5.01400410413408       1.40350153697221       3.23262004072108
H         5.77529331132234      -0.93012743364297       3.71030825423980
S         5.12133695321230       0.18662435898501      -1.24609804306791
O         4.09001477206489       0.46483259693399      -2.22595582409629
O         5.10680235352532      -1.18242519745866      -0.73585478154720
O         5.23943628370998       1.20000312041193      -0.20242609613566
C         6.72202839113042       0.28859367619149      -2.16642162008941
F         6.90113556159473       1.49884879296349      -2.67867742612318
F         6.74855835118643      -0.59553893514010      -3.15483294098116
F         7.73268020672472       0.02870683771582      -1.34304512327596
