23
C7H13ClN2 optimized with ADF in AMS.
N         1.01179753680209       0.78000083257323      -0.40336870496229
N        -1.14263890315258       0.69238899529245      -0.33212657585095
C        -0.05627025447774       0.12151875498526      -0.88057505718076
C         2.39393538707582       0.34642224710867      -0.66378957132488
C        -2.50175139385311       0.16994576915769      -0.52655683868255
C         0.60442012186922       1.77898630678985       0.45944514988512
C        -0.76024024299057       1.72493290391330       0.50502515681341
C         2.85848874414427      -0.63514057879615       0.39951910985399
C        -2.68649476138220      -1.15109063813950       0.20417061036170
H         0.04451496829880      -0.87370415054787      -1.46257528065673
H         2.38172793307406      -0.14782400891475      -1.64728894452766
H         3.01525186557220       1.25304335885033      -0.71424833320874
H        -3.19694275822541       0.94436321175949      -0.17043108844988
H        -2.65067907437364       0.04890571493903      -1.60992013238670
H         1.30500429921968       2.44514682826139       0.94805472408631
H        -1.47977392026548       2.33516007458123       1.03742228305600
H         2.77071000454961      -0.20558499766688       1.40899024657854
H         3.91118224487432      -0.89919166120124       0.21997661645228
H         2.25542339566358      -1.55359921577869       0.32121555534490
H        -1.99234118520529      -1.90819351614053      -0.19524377720844
H        -3.71674126080400      -1.50992876572987       0.06313893845823
H        -2.50079799605882      -1.02815287479464       1.28166538649235
Cl        0.66470851174521      -2.57910392730180      -1.90093633004324
