41
C11H24BF4N optimized with ADF in AMS.
N         0.45740673605009       0.29257462448196      -0.03467331397686
C        -0.05939228506116       1.10051880267518       1.14535162775515
C        -0.64560793187930       0.13841590887891      -1.05599366349860
C         0.94656956418120      -1.05662696562503       0.48700959222430
C         1.64614232855770       1.00820883366265      -0.67539691730828
C        -1.30868950313135       0.49415997603465       1.76563540070507
C        -1.91601294925644      -0.46863341407620      -0.47825226152346
C        -2.41904127563510       0.32985651365505       0.72640380657422
C         1.63156033387691      -1.94853923798241      -0.53343191325097
C         1.50346017587117       2.50299258098768      -0.90618845009303
C         2.11317680566160      -3.21432674756323       0.17861098490704
C         2.76456460519680       2.99751761130759      -1.61970323260427
H         0.78497415210197       1.17878552042085       1.84904907126859
H        -0.30062778516973       2.09562707781687       0.74683122945518
H        -0.84697632300606       1.15119668871364      -1.43683966053634
H        -0.23902673861695      -0.46506172686808      -1.87941209172163
H         1.64786131029568      -0.80578682762365       1.29810704060936
H         0.07336310736204      -1.56785328616243       0.91113862377315
H         2.50878132047018       0.82151921387667      -0.02244543852919
H         1.81509332369844       0.49199805810210      -1.63203872688870
H        -1.07971757570423      -0.46771691125876       2.25246257477345
H        -1.62912783665395       1.17482141746605       2.57189218945035
H        -2.67146369044517      -0.48136228084359      -1.28243167023580
H        -1.74404731337232      -1.52199817534078      -0.19862779273699
H        -3.29965590128994      -0.16213110726372       1.17027627479603
H        -2.74711696604008       1.32986451978701       0.38452480714431
H         0.95008374506757      -2.21538292453431      -1.36051807043703
H         2.51102689426227      -1.43673512155528      -0.95095650259883
H         0.60859524358909       2.74536358746381      -1.50678763928646
H         1.42805822571145       3.02870328333913       0.05790422131763
H         2.60711176584352      -3.89196791482753      -0.53171931821333
H         1.27661073262283      -3.75962206408839       0.64495051895419
H         2.84065661329696      -2.94471370174680       0.95881866057083
H         2.70826383409955       4.08147194067183      -1.79313030345302
H         2.89479926199826       2.50126612181479      -2.59444347110442
H         3.64743524207111       2.78773679135451      -0.99711922153692
B         3.97556453269864       0.56005309278654       1.96188508653730
F         2.67085879557777       0.60123767008195       2.59833429768654
F         4.12212765308906       1.75372593166251       1.19575220315097
F         3.96218675817359      -0.55595195241707       1.05522579722179
F         4.97873273683632       0.42243320903532       2.91596964475872
