45
C11H24F2N2O4S2 optimized with ForceField in AMS.
N        -0.56328567187170       0.08858760556612      -0.08080225052510
C        -1.58021125595734       0.54682796361576      -1.08352701082959
C        -0.89701090062728      -1.31196352232160       0.34081755988782
C         0.76274455563477       0.07298504699264      -0.79163296962487
C        -0.53186407208530       0.98252931861600       1.12918410952553
C        -3.03623762255518       0.43812946982165      -0.59993065866968
C        -2.34322299442119      -1.48872868655460       0.84611526320394
C        -3.35408554356229      -0.99362316833683      -0.18282601989236
C         1.98937195613494      -0.29961913388162       0.07798136364676
C        -0.10597534704145       2.43975003554285       0.87333229460053
C         3.26918241138683      -0.32211571012847      -0.76778202274046
C         4.48460485655329      -0.69228409302377       0.07833490165343
H        -1.50609132894413      -0.06894022966981      -2.00929870582895
H        -1.38852108278361       1.58967083779401      -1.41155331848421
H        -0.22874896358756      -1.65219056692449       1.16063696585453
H        -0.75089057674586      -2.02023226637851      -0.50729676253185
H         0.96035687175875       1.05975555299187      -1.26679792705092
H         0.72711163922824      -0.64769757953268      -1.64143684658278
H        -1.52223127114183       1.02891018357682       1.62130792265079
H         0.13969758452557       0.56092564666241       1.90825412425235
H        -3.71368578341913       0.72477887360844      -1.43337383569810
H        -3.23880361924501       1.14168867936666       0.23363317702018
H        -2.49350449989010      -0.96354011846244       1.81227098514261
H        -2.52757917397271      -2.56805147869219       1.03805757147438
H        -4.37669752398975      -1.03675085362283       0.24974845132133
H        -3.32947864418689      -1.65618141100897      -1.07627132792938
H         1.85640520094013      -1.30429107388958       0.52746339106009
H         2.13062866045500       0.44177010089302       0.89079613523972
H        -0.09505600248179       2.98166853109218       1.84267415316668
H         0.91569033710773       2.51020027728476       0.45147029833059
H        -0.82534985432664       2.96675856882564       0.21622660707719
H         3.43803225729467       0.67970839706882      -1.21958311335906
H         3.16463763535603      -1.06480571675307      -1.58863568259434
H         4.35400117017797      -1.70263291825736       0.52110090591267
H         4.62812111244056       0.04857013185345       0.89346082737131
H         5.39376828455290      -0.69954550058363      -0.55876856563883
N        -0.88859796207737      -2.62377659920901      -5.79003719465736
S        -0.38364979093143      -4.04069139665692      -6.43309101462570
S         0.17069541697955      -1.55663947725801      -5.14618687266155
F         0.06588741259259      -5.07652712865981      -5.19761025584419
F         1.17659255768431      -0.97828302483830      -6.35274009569480
O        -1.50192416102576      -4.65970666344613      -7.22259940339622
O         0.80087314130902      -3.80846299426126      -7.32901141178895
O         1.00800859098356      -2.23579242117003      -4.09886283697209
O        -0.58207889632513      -0.41281485675122      -4.52920857787110
