41
C13H21F3N2O2 optimized with ADF in AMS.
N        -0.43899472731968      -1.84219631596155       0.66011470525963
N         1.62060880540034      -1.29766710037822       1.06611667681363
C        -1.90183798116304      -1.86614395058721       0.69924420734777
C         2.82073885552688      -0.70460581114208       1.67939403704480
C        -2.50131146542882      -0.89713689829723      -0.31636122321576
C         3.47266072117613       0.30987530283176       0.74583337015069
C         0.36224265275136      -1.16400770376689       1.49916340883755
C         0.34243476136348      -2.40485791459632      -0.33186433339902
C         1.64202248893235      -2.06916364169681      -0.07809035307764
C        -2.09898317154228       0.55581975498265      -0.07641934478892
C         2.55063808452204       1.44309428028910       0.30347538595590
C        -2.71566021435198       1.50532183639986      -1.09961869193174
C         3.25727150041628       2.42949850932339      -0.62573314799048
H        -2.21680897801438      -2.90304493428607       0.50721042148936
H        -2.20702017699135      -1.60729718681670       1.72473100536878
H         2.49808220431765      -0.24559746535625       2.62644027116426
H         3.51250363594262      -1.53657386094768       1.87639008083439
H        -3.59973731785374      -1.00044147461803      -0.26711778772153
H        -2.20132359942614      -1.20574491314994      -1.33398937881580
H         3.87810992452729      -0.23773454292881      -0.12184542887786
H         4.34740216022073       0.71947127482919       1.28083734147997
H         0.04057428051805      -0.60998746745391       2.37110678814376
H        -0.08640163321056      -3.02392401225563      -1.11041865695608
H         2.63800931665927      -2.41358251378254      -0.44499700336068
H        -2.40565076410125       0.85332192281424       0.94411706519833
H        -0.99924441828060       0.64497972663433      -0.11643132281161
H         1.67262575219350       1.02157691134815      -0.21867041085939
H         2.16352276276139       1.97895674899947       1.19088991265128
H        -3.81550447843594       1.44944946943182      -1.08014851313287
H        -2.38308045192339       1.25192588487776      -2.11852986855742
H        -2.42528753454709       2.54725291685629      -0.90024422477368
H         3.61945164145697       1.91891954803214      -1.53173259651610
H         4.12945217758874       2.88310742727554      -0.12867457469798
H         2.58536294594206       3.24296110862380      -0.93914679145740
C         4.68940109270101      -3.86503648578337       0.42535291731793
O         5.82341363608953      -4.32233031397598       0.58837415493486
O         4.28831950302275      -2.78429469393734      -0.11491618407731
C         3.51091736265137      -4.73941287436038       1.00576085372276
F         2.82368232067723      -4.05660193693729       2.00717912119514
F         3.90676572942638      -5.91331796507397       1.55252633842430
F         2.56126418260485      -5.04767876665929       0.05102519408417
