79
C23H36F18NP optimized with ForceField in AMS.
N        -0.49601081248051       1.77114713439526      -0.21549667859564
C        -1.38293787070054       2.31550414856610      -1.29556529657568
C        -0.14135010943377       2.88732360109418       0.72176912392139
C        -1.16446529049778       0.66299572917496       0.55386975193756
C         0.76038090614008       1.29652216089165      -0.89257179171833
C        -2.64409036247303       3.02659834298316      -0.77614115230699
C        -1.36036796126941       3.64109336177658       1.29136067005654
C        -2.26593268513397       4.15590182903008       0.17677321726162
C        -1.48946792104672      -0.61744179014020      -0.25445339786600
C         1.81095033658427       0.62486324193134       0.02743218746534
C        -2.15778758828668      -1.66814081439000       0.64256425712405
C         3.04240469816025       0.19595422915509      -0.78163296898963
C        -2.48396104613598      -2.94239235840624      -0.14593404727409
C         4.09473299956623      -0.46549852482647       0.11721195230113
C        -3.16730107575537      -3.98269393168216       0.74886123056822
C         5.32323624858332      -0.88846872948484      -0.69665417351999
C        -3.49011043873081      -5.25387126701072      -0.03101859772331
C         6.37746907930330      -1.54121030451929       0.19239164919534
H        -0.82409766523582       3.06185224499858      -1.90789670029210
H        -1.68720740999371       1.52516238898437      -2.01231537820690
H         0.43749752159370       2.50909866427952       1.59161172305876
H         0.50424463522787       3.63715939859192       0.20858147734106
H        -0.54137811200431       0.37495432993185       1.42872988328441
H        -2.11541510971079       1.01033904056508       1.00181545387035
H         0.51360553641053       0.59025508068145      -1.71642613757067
H         1.26390675713618       2.15361872991720      -1.39765834591626
H        -3.19439904722697       3.45862688253163      -1.63987155300287
H        -3.33585044696189       2.31360487344557      -0.28238329246112
H        -1.93759514591850       2.99575684242361       1.98574389358737
H        -1.00040786596817       4.50775166527900       1.88714180937000
H        -3.18701195871640       4.59372948111146       0.61829437951618
H        -1.73999322975737       4.95771905775546      -0.38718073840915
H        -2.18553991566087      -0.38497163360762      -1.08527142562831
H        -0.56519260464491      -1.06409098012365      -0.67367059861396
H         1.38875493243364      -0.27913479620934       0.51146918105839
H         2.14397894798915       1.33133197916772       0.81471300093280
H        -3.09738518892123      -1.24772108903748       1.06462912731683
H        -1.47549199652392      -1.92232295172262       1.48371027046839
H         3.48927378775466       1.08837716316801      -1.27308935140594
H         2.73102160586640      -0.52293445010591      -1.57154313700261
H        -3.15750330081488      -2.68868961350575      -0.99419787507329
H        -1.54344967915764      -3.37131671049190      -0.55712705614876
H         4.40670119632757       0.25162180378506       0.90840067935477
H         3.65154954756657      -1.36091253225902       0.60654114242699
H        -2.49999731455211      -4.24242062733004       1.59948024146841
H        -4.11205551635883      -3.56255796441037       1.15788602442096
H         5.01984357863605      -1.61167924075083      -1.48479822713002
H         5.77113658641371       0.00194628666670      -1.18950080092914
H        -3.98618513093422      -5.98597077282847       0.64043715208408
H        -2.55821559674529      -5.71027712967872      -0.42769667296959
H        -4.17520766378862      -5.02534127082495      -0.87516200667757
H         6.72149416081576      -0.82614286203066       0.96968236573268
H         5.96214711024166      -2.44733930999359       0.68303612348537
H         7.25063696372757      -1.84062229671283      -0.42445436522026
P         8.06651392057901      -3.77229882473933       5.49093760342562
F         9.35630680291337      -2.77584820399653       4.92705836897231
F         7.52365437609552      -4.76697506043055       4.19249418696606
F         8.75738883971623      -2.94912226899675       6.83451646454827
C         9.43701234472361      -5.12671264490009       5.32738613087084
C         7.20064297576905      -2.38097251557665       4.46038469260417
C         6.74043636339540      -4.18276933854862       6.81981207449992
C        10.59819973347761      -5.03796477329680       6.34194542350796
C         5.67447744049798      -2.51178875366934       4.22430312131573
C         7.16765946338409      -5.05183205126791       8.01745060729803
F        10.00593943674292      -5.04308957695355       4.06170264362028
F         8.88060637124508      -6.39191089393165       5.43074700437778
F         7.77963606845446      -2.31362256975472       3.19686368448722
F         7.41344333039369      -1.16485547450306       5.09209746127622
F         5.69295549627008      -4.83585712736190       6.19524746765298
F         6.25556651842291      -2.99872104927476       7.35059896831487
F        11.52599147955381      -6.02156080947490       6.04826647298302
F        10.15829475855976      -5.24487658602527       7.63059720214644
F        11.23895798711124      -3.81444701151700       6.27438620217863
F         5.28394728854907      -1.54605685235789       3.31345785312733
F         5.33233469838343      -3.74440580024989       3.70145251267096
F         4.95571920566286      -2.29112267644020       5.38062557481806
F         7.70028197877399      -6.25563179000850       7.61032785358025
F         6.04880759058412      -5.32931889561035       8.78316923042234
F         8.06817694640328      -4.38279658921265       8.82574861365387
