37
C11H23NO2 optimized with ADF in AMS.
N         0.21297636956217      -0.17993275154514       0.06775834230383
C         0.07442872446845      -1.48789307678964      -0.69388981020745
C        -1.21121034485785       0.11821677398332       0.47596584582422
C        -1.19955966280563      -1.30865961620052      -1.51438443850235
C        -2.06459676993688      -0.28127676228169      -0.73133837783983
C         1.09417989035893      -0.34274550160487       1.27986794176006
C         0.74757481953677       0.88124738843554      -0.88438464817562
C         2.53709558157319      -0.68560750732234       0.95866642665053
C         0.98716550913678       2.23215153756220      -0.24323218650403
C         3.29469338743950      -1.00322767336084       2.24546407575107
H        -0.05574304770284      -2.26448724732007       0.07707670883640
H         1.01502795103774      -1.67046217654789      -1.27704418621321
H        -1.29667548134851       1.17058224977774       0.77541206468857
H        -1.42305816924684      -0.52126382543353       1.34648718466997
H        -1.70942467592474      -2.27461385475989      -1.63810989418750
H        -0.96093443721383      -0.93875185769736      -2.52244188029897
H        -2.30570586418299       0.59379078192290      -1.35281920673052
H        -3.01828211107075      -0.71003083457862      -0.39055062221836
H         0.62630297910597      -1.14503287120568       1.87466517638117
H         1.01521821096720       0.59078493967429       1.85994860022112
H         1.70118183816768       0.48658944646988      -1.32715046638284
H         0.00073176545611       0.95860678052682      -1.68730383983342
H         2.57797407795738      -1.53800851945642       0.26005082878026
H         3.02145470271430       0.14084027316359       0.41615474344731
H         0.09639721083063       2.67605303554536       0.22909306692123
H         1.80511587547499       2.20084025701326       0.49081261134107
H         1.31091794037428       2.91444301798135      -1.04426606587967
H         3.27706500647648      -0.15498140785686       2.94982768413633
H         2.86602568428433      -1.87976150315631       2.75885199498588
H         4.34719122590204      -1.23009569924745       2.02137278306356
C         4.57134349030661      -1.43882056992991      -3.33696073177102
C         3.40243425859673      -1.05285807227155      -2.42096172732983
O         3.33187741505237       0.16723791629490      -2.07840623126117
O         2.61922271531963      -1.99190846821532      -2.06646344446659
H         4.74737243967602      -0.65239896596267      -4.08462529118325
H         5.48768716823554      -1.52484354412584      -2.73135245623411
H         4.38887185137906      -2.40349950638073      -3.82950426274286
