49
C15H28F3NO2 optimized with ADF in AMS.
N        -0.40532994294426      -0.15547038262241      -0.34404546059323
C        -1.30049828606694      -0.70822879105522      -1.43754647573745
C        -0.87466739256031       1.23259968767218       0.03582407057008
C         0.99648680354130      -0.07109373846588      -0.94264612618174
C        -0.42625217935676      -1.04900641601596       0.88641913241510
C        -2.76970299111160      -0.69481187961435      -1.05842373026582
C        -2.34957987823094       1.30109448770127       0.40696828372045
C        -3.23127820158556       0.71759030134476      -0.69748404643612
C         2.10463126180313       0.33287777443559       0.00943798980544
C        -0.04492265262680      -2.49499620091378       0.63441628581886
C         3.43139129409528       0.33642595313276      -0.76019027380965
C         0.15356132829717      -3.23986912732090       1.95687268019713
C         4.60770495368530       0.71372967876916       0.13370632207423
C         0.61956385503866      -4.67426717118931       1.71379238078201
H        -0.92608091815670      -1.70899661157074      -1.68048618481508
H        -1.11953661663861      -0.06861339327974      -2.31612740447286
H        -0.67327101056304       1.86294330987692      -0.84536954680818
H        -0.22957048953086       1.57317382605653       0.85705650109480
H         0.90826536058293       0.65412252380375      -1.76780949588493
H         1.23492184774726      -1.06819427720931      -1.37107981521446
H        -1.43650266280064      -0.97754794907024       1.31004278837098
H         0.26360057089731      -0.57619246249511       1.60063796300320
H        -2.96421570090032      -1.39439114639463      -0.22779031078735
H        -3.33267302104963      -1.08344015380231      -1.92303143493863
H        -2.59137395036847       2.36274051710861       0.58360338837123
H        -2.53403941295982       0.78332583809426       1.36317587359193
H        -3.16099191916333       1.35968347636087      -1.59484305158331
H        -4.28781301186307       0.71752320682895      -0.38546368313055
H         2.19785953176008      -0.40167819737466       0.82667123271515
H         1.93442929272990       1.32724152555479       0.46149956215877
H         0.87346399710357      -2.57113360280497       0.02572493190922
H        -0.83403212515842      -3.00501355991671       0.05643333053173
H         3.36024616126991       1.04133770564388      -1.60851069578034
H         3.57577287210589      -0.67114000490013      -1.18597904001169
H        -0.78580549593477      -3.23977551579324       2.54071808153295
H         0.90471165576965      -2.70760984125942       2.56883857010029
H         4.70953622088695      -0.00021704369539       0.96677966810792
H         4.48170462712343       1.72099217326559       0.56354839090947
H         5.55159600301092       0.70083324244065      -0.43105153116313
H         1.57307434282982      -4.68026850342284       1.16434680809469
H        -0.11437017439305      -5.22591983749223       1.10587798467828
H         0.75713271083505      -5.21727063371989       2.66128022931104
C         2.13444543549018      -3.48107508226258      -2.55010096915180
O         2.16844143401372      -2.66273799289054      -1.58092775715304
O         2.94690924828365      -4.31998872384056      -2.94954683896760
C         0.78568705614912      -3.38817794855790      -3.36613806508502
F         0.52531293227866      -2.09727168935121      -3.80345013014266
F        -0.31156265708423      -3.73059959056781      -2.57775406583223
F         0.72444566291927      -4.18223951222054      -4.46000625661808
