40
C12H22F3NO2 optimized with DFTB in AMS.
N         0.34538013799681       0.22436016808130      -0.10093679873912
C        -0.88183891191489       0.36328473755371      -0.95188329476961
C         0.09142622541832      -0.82678563631118       0.94265858293536
C         1.45099995904683      -0.25800515274274      -1.00880772964150
C        -2.13484048397694       0.68932693794612      -0.14639254038252
C        -1.14148272561188      -0.54309652794952       1.78985489039395
C         0.70855867481184       1.52276370033482       0.56848693529539
C        -2.38518619746181      -0.37520670046353       0.92084156699506
C         2.80605730645605      -0.47690044561871      -0.33821398044339
C         1.10495632149396       2.64831089560285      -0.37088457895320
C         3.80904824375885      -0.95253152634200      -1.38764351304116
H        -1.01759186213610      -0.58924730876428      -1.47233231686152
H        -0.68740817959388       1.13975880123394      -1.69416998201656
H         0.97183833976995      -0.87706212470252       1.58175138074982
H        -0.02520152547134      -1.77732988807832       0.41395833511908
H         1.54248253750366       0.47561482376565      -1.81362038265364
H         1.09916186513980      -1.19713207517948      -1.44718844700688
H        -2.97394242643097       0.72057474035616      -0.84667209320844
H        -2.05101663951505       1.67650796708603       0.31452099773790
H        -0.98155742884074       0.34294184479217       2.40783112295416
H        -1.27103528105607      -1.39332835908321       2.46416438900533
H        -0.14701263102453       1.83036247798541       1.16948044819254
H         1.54377450597288       1.31538872684702       1.24414130843811
H        -3.23490554794466      -0.08097389698916       1.54100816320335
H        -2.62956279519807      -1.32659635581971       0.43662186019403
H         3.16899979469947       0.44671621072345       0.11667589328898
H         2.72648855990914      -1.22844175304426       0.44955778534682
H         1.33439272637846       3.51121826307722       0.25419085051659
H         2.00030629708113       2.40485003820028      -0.93898716523443
H         0.30704345656058       2.92443397570483      -1.05994978480461
H         4.77010119998967      -1.13505786461576      -0.90923054267532
H         3.47164912862703      -1.87743852385316      -1.85846661187996
H         3.94440158353993      -0.19617695752904      -2.16202263421033
C         3.58698136738166       1.28219803880999       3.10451180701185
O         4.40176668290689       1.60706923057307       3.93099490099346
O         3.35903638777501       1.58082164441661       1.93084624679251
C         2.47824639247916       0.15608978067740       3.63123897009092
F         1.19606847615626       0.58493915192930       3.39261921862918
F         2.52138796479008      -0.18970073586925       4.91700414814772
F         2.57835694093359      -1.00278042274147       2.91300929379006
