29
C9H16N2O2 optimized with ForceField in AMS.
N         1.11774744895759       0.35790749016260      -0.39181137050236
N        -1.10573713143209       0.36263556226334      -0.38922149110047
C         0.00422942020531      -0.23072974214532      -0.87018445010499
C         2.49944257112879      -0.03103075092676      -0.66138834234276
C        -2.49003169067956      -0.01996439345227      -0.65550835103411
C         0.69903237187779       1.36081835610173       0.40694891066874
C        -0.68068897691390       1.36398537066331       0.40827905147319
C         3.11799336456209      -0.67985345335278       0.57170932332246
C        -3.11377791219790      -0.65150354495740       0.58411856442362
H         0.00188160237786      -1.08613221144013      -1.53543698355711
H         2.53265296667947      -0.75561448395417      -1.50358675102097
H         3.08909329885900       0.86463990216701      -0.95299508158774
H        -3.07332297175103       0.87686820806959      -0.95629811284992
H        -2.52853364236736      -0.75350207628001      -1.49041498489917
H         1.34701885963049       2.03528574769550       0.95206533422629
H        -1.32444659736727       2.04156004122194       0.95456303359573
H         3.12804590577719       0.03620098237908       1.42048107853827
H         4.16152476635055      -0.98660008078636       0.34955248176459
H         2.53313314302551      -1.57918966122937       0.86028667465896
H        -2.53691377068108      -1.55333842812432       0.88087375663309
H        -4.16023109613912      -0.95074697833205       0.36545249063365
H        -3.11709912930630       0.07238518404713       1.42622363533589
C         3.15587144130236      -3.66410965898576      -3.50715643898055
C         2.02601587645280      -3.59800734789355      -4.48549894589042
O         0.89223193356816      -3.37579706246499      -4.09260710743484
O         2.23260948797461      -3.76511617502186      -5.67684965834445
H         3.25287758632417      -2.69016791791200      -2.98390857970686
H         2.95690910751372      -4.46178606939865      -2.76081904854316
H         4.11219133046816      -3.88847922741349      -4.02666719557462
