49
C13H28F6NP optimized with DFTB in AMS.
N        -1.11996346436468      -0.16787305432744      -0.12530003879690
C        -2.07128459829096      -0.06535985201344      -1.28473545463376
C        -1.20945643634429      -1.55073691975194       0.46471247036347
C         0.25997449505154       0.03280459717058      -0.70637941858411
C        -1.41599672231448       0.83956819193261       0.94634763628675
C        -3.50349342531482      -0.43620295851705      -0.92719034944725
C        -2.62798932168285      -1.96354029094343       0.83183581759231
C        -3.55356025485162      -1.86005913742952      -0.37759403536405
C         1.41447440631996      -0.08623655218388       0.28167265602857
C        -1.28111479480734       2.29568259820037       0.52498646205355
C         2.72996306454942       0.06513753341652      -0.49393256330665
C         3.93602130785993      -0.11314770896236       0.43176841359413
C         5.24807037428848       0.01281654377079      -0.34847003993006
C         6.45859673320958      -0.17265902650774       0.56515926451609
H        -1.69958146295729      -0.75425564601123      -2.04632418823376
H        -2.01450451062124       0.95222867270618      -1.67466835398432
H        -0.56934437278691      -1.57395819673861       1.34778882042480
H        -0.80999513135236      -2.23637554639546      -0.28219137694196
H         0.26475274491814       1.01463944859701      -1.18475298261678
H         0.37738144034802      -0.72498913060242      -1.48058123215807
H        -2.43422985951858       0.65709614640245       1.29409049119568
H        -0.73211695080429       0.63147601452371       1.77242420906605
H        -4.09432738964989      -0.36826492308026      -1.84422089318420
H        -3.92601609650236       0.26852731865319      -0.20469150712533
H        -3.01588170390919      -1.35987219226459       1.65839486077386
H        -2.57880828315316      -3.00069249011191       1.17329164595272
H        -4.57583840139308      -2.11473822047965      -0.08941259802493
H        -3.22512387224017      -2.56093602274517      -1.15058552216159
H         1.35344031223033       0.67967472203910       1.06096404806647
H         1.40307621286513      -1.06918070439854       0.75744423327720
H        -0.25976216876089       2.54402000833019       0.24369597550120
H        -1.94744173958627       2.54396096686072      -0.29903631984062
H        -1.55622880471015       2.91076494643384       1.38177682393883
H         2.76552817602667       1.05435583401601      -0.96375817185949
H         2.76286181178096      -0.68708820030901      -1.28697357188924
H         3.88697935123994      -1.09910752326102       0.90527703131227
H         3.90539407865181       0.64178974320037       1.22602285605525
H         5.27135235294872      -0.74180481271054      -1.14091912868683
H         5.29708532754023       0.99888885422095      -0.82295418248821
H         6.43857278364315      -1.15959461420512       1.02919683988781
H         7.37931403235750      -0.07842823693956      -0.01089528316349
H         6.46312686706648       0.58154672983068       1.35376023341181
P         0.81295106043931      -3.27884367208284      -2.50332903217834
F        -0.70744944702570      -2.52846100193632      -2.35824308790045
F         1.42606805393314      -1.80372973011499      -2.96844456317043
F         1.10987806625889      -2.83483268975099      -0.90667977605368
F         2.28681625920410      -3.95052008209157      -2.59625769129461
F         0.14335995446683      -4.66864519594727      -1.97212295743987
F         0.47157704194433      -3.64310316959141      -4.04865939363985
