41
C13H24N2O2 optimized with ADF in AMS.
N        -1.05262713457861       1.42357690725987      -0.20601024585275
N        -2.35817027266318      -0.28802266748084      -0.09597485288694
C         1.32664472229228       2.02433156474416       0.07164113264758
C         1.86528676432583       0.62909326713813      -0.23480846739620
C         0.02220830369562       2.31665978259302      -0.66428658365275
C         3.22105229752086       0.35883403149999       0.41054302026124
C         3.77797424468960      -1.01522302464181       0.04446578306851
C        -1.42508503939579       0.31157549731973      -0.85999922332169
C        -1.74418656537352       1.52706219462820       0.98602677273227
C        -2.57816744358657       0.44786744638112       1.05260298011778
C        -3.03651343108669      -1.53178648147882      -0.49106400052884
C         5.11946372739088      -1.31279125117786       0.70735581450480
C        -3.81721334564883      -1.35328467837166      -1.78355491723923
H         2.05891117102411       2.78378003236070      -0.25628695622463
H         1.19451787411096       2.16112066415722       1.16190385692159
H         1.92977665295866       0.51288360493977      -1.33161865520686
H         1.14472430263635      -0.13311182012997       0.11588146382196
H        -0.31889612630653       3.35050443524265      -0.50365818026428
H         0.14324743322521       2.10785323463249      -1.74542073728704
H         3.13509835119347       0.44036193753552       1.51161717197348
H         3.94144178159556       1.13868225639907       0.09713204023034
H         3.88067376186032      -1.07719405465302      -1.05394760833594
H         3.04291453848968      -1.79097473197077       0.32782981024622
H        -1.06454608736612      -0.10156631994037      -1.90890960791267
H        -1.59298059834563       2.34978776790246       1.67358224890461
H        -3.30115311843625       0.15329011199790       1.80334065740094
H        -2.26322667918537      -2.30680939297312      -0.60541716120018
H        -3.68637761298923      -1.81513559565671       0.34921548221645
H         5.03208220673696      -1.28806894877566       1.80612649366585
H         5.87660433039232      -0.56620679965407       0.41669758687723
H         5.49684317148002      -2.30596638543691       0.42011662043131
H        -4.55469310707679      -0.54349083339610      -1.67977259263493
H        -4.34834751556804      -2.28656123396248      -2.02238408240429
H        -3.13046447127100      -1.12267850257674      -2.61252760339222
C         0.54504152047185      -0.63459838078989      -5.17464853381566
C         0.08615165849146      -0.07248054520581      -3.83181967644212
O         0.57690390511379       1.00943091766675      -3.42183783544422
O        -0.78928368445086      -0.78972989532141      -3.21623295503856
H         1.26171206653224       0.03671161344269      -5.66395807985591
H         1.00574874001153      -1.62191727676552      -5.01709837261404
H        -0.32923027721054      -0.78905531218190      -5.82510555797021
