46
C12H26F6NP optimized with ADF in AMS.
N        -1.01404998990714       0.15501190543927       0.70192005061778
C        -1.34325851005926      -0.07859517254800      -0.75544831736255
C        -2.23144214010070      -0.42080175426416       1.38693987317983
C         0.26290868910274      -0.55930366947715       1.13497441891388
C        -2.84774827901218       0.20248117073268      -0.87933660349020
C        -3.40801739644509       0.09222648323776       0.56452841935845
C        -0.89660192568244       1.66661533710197       0.93994559100772
C         1.39974323849960      -0.49217333600120       0.12929620066568
C        -1.00525641554851       2.09023926423263       2.38748638030739
C         2.69805651175306      -1.00213106701412       0.76188227287994
C         3.87464576442479      -0.91991591076406      -0.20963356866720
C         5.19946488475477      -1.32366203673020       0.43379431692305
C         6.38285346403357      -1.19974358291971      -0.52417224676922
H        -1.11216923203584      -1.13354682595043      -0.96242678586068
H        -0.69696862260423       0.55986905278669      -1.37136406462957
H        -2.23004194512881      -0.14036229498623       2.44711767381511
H        -2.13761275994127      -1.51423056924506       1.30209682642804
H        -0.02673465803993      -1.60264675574488       1.33883727413292
H         0.56727195704343      -0.08589038825734       2.07796864505688
H        -3.30867420979388      -0.53142756554819      -1.55613935129619
H        -3.03857568782197       1.19823296765354      -1.30411212280213
H        -3.74801203439388       1.07138755229859       0.93374491531196
H        -4.26045135112425      -0.59895933556810       0.63665690379506
H         0.07586770948007       1.95955669414644       0.51885595682155
H        -1.68867008946347       2.13151648372373       0.33540244365043
H         1.16434973024339      -1.10190652616607      -0.76078661199988
H         1.56766860308032       0.54702966538708      -0.19048207137607
H        -0.70270413080864       3.14806030225433       2.42737176447066
H        -2.02581494058368       1.99955590051246       2.78875356801512
H        -0.29399479831451       1.55891054531711       3.03433248477091
H         2.57030600487796      -2.04434938520534       1.11276780299507
H         2.92321231579775      -0.37563123744988       1.64159053124750
H         3.95499396622207       0.12012160952111      -0.57099497789950
H         3.68029686587956      -1.56151581292188      -1.09077623414231
H         5.37113034342052      -0.67879959265534       1.31416245880943
H         5.12697695492256      -2.36204194339601       0.80816222989898
H         6.49571431758728      -0.15975697480582      -0.86906195167873
H         7.32638787220434      -1.49794761116082      -0.04064641799395
H         6.24373395688859      -1.83732147051444      -1.41291429471580
P         2.70718106081054       3.24166461246903       1.14717037877288
F         2.03098265799221       1.94291758448352       1.98582261362726
F         4.00948563962496       2.29592127232588       0.78744726475499
F         1.93713252286304       2.67214500871821      -0.24977519212331
F         3.32708792599428       4.48814588219670       0.29228721647821
F         1.33530674628035       4.11964537232934       1.48412392762942
F         3.41221579332790       3.76047191612632       2.52926068807116
