32
C10H15F3N2O2 optimized with ADF in AMS.
H         1.06293815471991      -0.24392683995730      -5.62069843126683
H        -0.61051395394750       0.26338048567834      -5.22829989292572
H        -0.09801994398749      -1.48123314388160      -4.94031100890955
C         0.20952757537284      -0.40882373391454      -4.95226705193126
H         2.48107927060719      -0.28750525376940      -0.89354016702715
H         2.58743339963377      -0.99121359173939      -3.59049874839183
H        -1.16641179104167       0.76249824960297      -2.77047594376586
N         0.62908111647856      -0.10235235395394      -3.58435870339638
C        -0.14698415727245       0.42723738517055      -2.63450667951596
N         0.52955651453510       0.42343242210055      -1.47530834888448
C         1.76487634904414      -0.14817834073898      -1.69317285404635
C         1.82256297972752      -0.48485875395892      -3.01518444558568
C        -0.04204956290786       0.76046053374497      -0.16330506535278
H         0.76080434911237       1.22422083170157       0.43133671717095
H        -0.81431236024143       1.52687387767474      -0.33223918623395
C        -0.61895881650359      -0.47428251271849       0.52099342857730
H         0.17337905935934      -1.23526322482690       0.62186979526999
H        -1.38282266770125      -0.92092562847600      -0.13516161365692
C        -1.22337415737229      -0.16251274802784       1.88703803168975
H        -0.45467507706926       0.27878578881492       2.54772902721252
H        -2.01959329819982       0.59636560615959       1.77817650122170
C        -1.80056296150426      -1.42121618151278       2.53288524102578
H        -1.01814550631297      -2.18261269527069       2.67458847509630
H        -2.58054382137519      -1.86630345963471       1.89574054247333
H        -2.24431427958294      -1.19828970859788       3.51431912302351
C        -0.85196374450234      -3.82434688366715      -3.50200274434648
O        -0.10819291174567      -3.18377975493456      -4.29947695361246
O        -1.42502296902433      -4.91714502144961      -3.57159957639721
C        -1.07039181402819      -3.04017235545015      -2.14915355155995
F        -1.75753158473253      -3.69589454241339      -1.17751200584762
F        -1.78137993435322      -1.85209568002824      -2.36642839876489
F         0.12733016051550      -2.65416775212573      -1.57262699884179
