34
C8H15F2N3O4S2 optimized with DFTB in AMS.
H        -1.46163151179542      -1.94677510082315      -4.68093588596527
H        -0.31405102746900      -3.31809932379467      -4.60250905621056
H        -0.00445321718104      -1.94372753166596      -5.70185671444642
C        -0.41645753594534      -2.24160097340795      -4.73768330563691
H         2.90182579151377      -0.61699990484673      -1.95782910387314
H         2.24423056250930      -2.45827420968969      -3.92506284227644
H        -1.16072526856312      -0.16654564149245      -2.98102097946308
N         0.31708508031475      -1.55240692585511      -3.68896137697498
C        -0.16170328774374      -0.56493720476807      -2.93791243934788
N         0.82795670704285      -0.12717740014390      -2.16064242460632
C         1.96490989624509      -0.83163406414620      -2.44058383965809
C         1.64487562367712      -1.72941623620869      -3.40904733711100
C         0.71508255603164       0.95225992533548      -1.18685506300544
H         1.70190599685222       1.40553384860068      -1.07406656318189
H         0.02949422254550       1.69927068787002      -1.59470405956143
C         0.20495141293580       0.40388115581739       0.14710845712531
H         0.89651081872114      -0.36267894699560       0.51114410752323
H        -0.77085400894751      -0.06853704850223      -0.00610729037299
C         0.08499819821824       1.53241763783225       1.17602292691310
H         1.06472523801719       2.00042571736212       1.31495680786456
H        -0.60086561294030       2.29647365365902       0.79636655788510
C        -0.42554178835030       1.00767676507487       2.51609552400389
H         0.25681898762514       0.25812104923147       2.91903150442007
H        -1.41092396153787       0.55457926993033       2.39973039986709
H        -0.50194846048039       1.82777408826958       3.22962927621240
N         0.38237709447266       1.90058678438305      -4.31725271990054
S         0.12251351674787       1.17676017844023      -5.70128920237522
S         1.85444129478312       2.42028380474594      -4.00062254309440
F         1.23900126009126      -0.02821984044048      -5.78198231364599
F         2.22587924581543       3.45852705549529      -5.16416489743045
O        -1.11422229672540       0.45905191123608      -5.56347112639531
O         0.35034108765690       1.93550923573558      -6.88197535641718
O         2.87032886908348       1.41192968470634      -4.06046005960240
O         1.76722834947896       3.20267316295518      -2.80616142706152
