46
C14H26F3NO2 optimized with DFTB in AMS.
N        -0.17905165081420       0.49303065226923      -0.14332266048584
C        -0.24057875676068      -0.00520631317687      -1.56264303357016
C        -1.56390100154988       0.49754811889329       0.42761342366862
C         0.72318107364617      -0.36705555455811       0.69866972481943
C         0.32828672998450       1.91092121128598      -0.20693457232863
C        -0.90848680833717      -1.36379084641193      -1.70114569034271
C        -2.25647986536791      -0.85825379804334       0.33614013825004
C        -2.31696115509810      -1.34316739630010      -1.11097992642795
C         2.21037740588182      -0.25293863002591       0.36256771467897
C         0.41253363299392       2.63550653728768       1.13213373431706
C         2.97518563647091      -1.40918131202253       1.01688863815509
C         1.08601342476558       3.99114809829766       0.90997294819412
C         4.46957335262317      -1.30457943569294       0.71878270922996
H         0.78174231385240      -0.02979877714439      -1.94195200159689
H        -0.78950777588376       0.74670714893300      -2.13372588516074
H        -2.13258342851842       1.24391536689380      -0.13391670963307
H        -1.49778388549135       0.81351554800286       1.47052807932779
H         0.39750564608466      -1.40062605595161       0.56699847500761
H         0.55126208170079      -0.09238598209006       1.74289252119252
H        -0.33402016947282       2.45123532200384      -0.88655868548514
H         1.31202374053466       1.86355294507635      -0.67695105542309
H        -0.31277095750172      -2.14843001871296      -1.22606612857607
H        -0.95770194019624      -1.58923465735562      -2.76939208394655
H        -3.26783758757596      -0.73614363034749       0.73332469627208
H        -1.74150943652814      -1.59391842621333       0.96025712323414
H        -2.95166301935530      -0.67031321561919      -1.69616735395055
H        -2.75490156487216      -2.34346815652595      -1.14709447213618
H         2.60911298396266       0.69461296197449       0.73214846272436
H         2.36928329338843      -0.27944302515776      -0.71702444438578
H        -0.58473896904364       2.79508079574670       1.55314458248076
H         0.99764012062079       2.06009923345727       1.85469088853767
H         2.59187146630042      -2.36198338640049       0.63576633559243
H         2.81339902266755      -1.39147186498024       2.10047227567919
H         1.14387669543167       4.53383623862144       1.85293867370540
H         2.09475155998433       3.85399688598493       0.52056767911276
H         0.51615481888582       4.58678552301717       0.19683626539597
H         4.87284715209748      -0.37259263100802       1.11646121472080
H         4.64525705700566      -1.32723715381566      -0.35685189380139
H         5.00007344629890      -2.13839067532016       1.17829135178946
C         1.75628445999123       2.04657295491632      -3.12896761529965
O         2.40535938806982       1.27916741451669      -2.40670264525425
O         0.56783260013302       2.36344456025583      -3.08247572850586
C         2.61152710483640       2.72953280642169      -4.29709152511976
F         1.95075306864501       3.71883434025145      -4.91518433601288
F         2.95257629500594       1.83393856417543      -5.24316143836979
F         3.75633094190372       3.25736252819159      -3.82718436237329
