64
C18H26F18NP optimized with DFTB in AMS.
N        -0.71517687682579      -0.90517679551255      -1.35615680457749
C        -0.53791259069681      -0.93277718635562      -2.84681311068539
C         0.69551391702257      -0.82071728183796      -0.85791758179261
C        -1.48381888743753       0.30894409561340      -0.92143830826001
C        -1.36569115568905      -2.18552154922369      -0.89839540627102
C         0.69819635991133      -1.79137951361367      -3.08992479622418
C         1.50820751978974      -1.72022552415929      -1.78620668608536
C        -2.92795102925932       0.33784605403030      -1.41418699334285
C        -1.65725098243923      -2.24780770005097       0.59861648579377
C        -3.64065733833365       1.58027745549811      -0.86868215868564
C        -2.18858731303296      -3.64137284485088       0.96106683601868
C        -5.10644462877076       1.58790310209342      -1.29838760678203
C        -2.44583480675505      -3.74972492204640       2.46207141161531
H        -0.37678852523395       0.09556835282243      -3.17726620717033
H        -1.43030007875822      -1.32922887726419      -3.32256183960708
H         0.74019253652557      -1.11864015350717       0.18863553826668
H         1.01347307292117       0.22051772276947      -0.94741884427160
H        -1.44553025045535       0.33876922416801       0.17030446979065
H        -0.94073665332669       1.17745851194999      -1.30529063154343
H        -2.29108859662368      -2.29704729261453      -1.46222258215372
H        -0.69581844633503      -2.99805390841389      -1.18490486845255
H         0.41405188454561      -2.82047503443960      -3.31534821098199
H         1.26363068363385      -1.40239866589136      -3.93793349960797
H         2.49888606384630      -1.29223997878188      -1.94766551438763
H         1.63495904618001      -2.71358294781884      -1.35150994243761
H        -2.94836772858189       0.35332207656636      -2.50513259172213
H        -3.46465203884999      -0.55081565214407      -1.07971421305568
H        -0.75348607271839      -2.04431409170984       1.18130753101549
H        -2.41003667331097      -1.50365513818435       0.87092544441847
H        -3.14057719810648       2.48293258302784      -1.23616056794599
H        -3.57798713725417       1.58350151754385       0.22544789386635
H        -3.11898619723298      -3.82379523667351       0.41844317140916
H        -1.46225038701057      -4.40083681083064       0.65473422044718
H        -5.61203431379442       0.69149244089132      -0.93912117839667
H        -5.18448161576538       1.61678828277399      -2.38432856083420
H        -5.60852106002821       2.46335662366766      -0.88709981534584
H        -3.17858189704906      -3.00573656137178       2.77704594516162
H        -1.52444140834834      -3.59089270122886       3.02426080794105
H        -2.83414923229072      -4.73923076910958       2.70059788251380
P        -4.78247383923056      -2.67378293133434      -3.87956028524071
F        -5.72551723889457      -1.39678598077203      -3.34124573807413
F        -6.12642498507103      -3.45445348440521      -4.44895225192906
F        -3.33732362016160      -1.91295758717072      -3.27185792607718
C        -4.56973228832665      -1.58397878616032      -5.50629891975324
C        -4.96862993521458      -3.36548098481571      -2.04489937965591
C        -3.69265012355178      -4.23554639273559      -4.52443674546263
C        -3.94508100946740      -0.16366166152181      -5.35433831943577
C        -6.22469171404487      -4.18457490402774      -1.65790977921405
C        -2.14339022449764      -4.16139839505325      -4.47048295313364
F        -5.77832501331739      -1.40995741927084      -6.05917885715663
F        -3.78719605238261      -2.18208017675489      -6.42485740648862
F        -4.93871321449275      -2.31364957801642      -1.19371333648287
F        -3.88787025959878      -4.10850573072143      -1.71177133764210
F        -4.01965541115413      -4.51715720952994      -5.79699085288788
F        -4.04291102153284      -5.32082564717330      -3.80435834732882
F        -4.07296081537195       0.51240239082310      -6.49419314511760
F        -2.63157360008462      -0.24607574072135      -5.08851154800164
F        -4.49527978906484       0.56841214834637      -4.38912425496958
F        -6.17388808849437      -4.50166892417030      -0.35844807146629
F        -7.32877262566076      -3.47530581270805      -1.86128803120153
F        -6.30982497691814      -5.31388816655745      -2.34864073049058
F        -1.57794709953404      -5.21621822703474      -5.04855056505977
F        -1.69991257938270      -4.11688845436819      -3.20227870103781
F        -1.67437873961095      -3.06630961432681      -5.07458695552907
