29
C9H16N2O2 optimized with ADF in AMS.
N         0.18301054806134      -0.08081127043175      -0.32721408453022
N        -1.61317672314564       0.73287528059333       0.49008895025263
C         1.50586515624604      -0.17002080172840      -0.94196956608567
C         2.56685284981775      -0.65512964619844       0.04248222681510
C        -0.45402896842937       1.10093729630704      -0.12029376458606
C        -0.54987938807303      -1.15813858898477       0.14291407073112
C        -1.69690446976231      -0.63923938956551       0.66451368986458
C         2.74552756119432       0.28827524721605       1.22830238220663
C        -2.63299957527494       1.69527448923430       0.88405270342737
H         1.73494469894742       0.84663334498519      -1.29594334626994
H         1.44042829663307      -0.83318417082784      -1.81979118626640
H         2.30128488536967      -1.66757844599465       0.39651467519067
H         3.51428420661489      -0.75869366139414      -0.51437936237700
H        -0.13850236003863       2.65450138590212      -0.53320588130093
H        -0.21572285560792      -2.18572400962086       0.05927418912586
H        -2.55083555418269      -1.12725731746280       1.12071000286544
H         1.79884915193017       0.42105486211871       1.77453151731238
H         3.07824945296241       1.28191005435384       0.88886900495136
H         3.49646906591779      -0.10080808907380       1.93219961129409
H        -2.34527198110786       2.67074274435370       0.47355783129967
H        -3.60620529588665       1.40153474074214       0.46683362857373
H        -2.70133444347210       1.75808086552468       1.97937638257307
C         0.85193600761473       3.81233681442365       1.38517558539474
C         0.33955092611049       4.48979153216326       0.12345065390803
O        -0.10460701674806       3.67672274792368      -0.84278644138644
O         0.35019976113900       5.70497623491579      -0.00199786360026
H         0.12803051421703       3.08430313008642       1.78237084129096
H         1.77297445198427       3.25332376813813       1.16155611795948
H         1.06810922276879       4.57900014420094       2.13949242456598
