56
C16H32F3NO3S optimized with ForceField in AMS.
N        -1.09221410403721       0.81638025682530      -0.17844979318052
C        -1.57690581500096       1.85567873805432       0.78876864236050
C        -2.07115323497782       0.72278254947748      -1.31049847902330
C         0.20606244060346       1.28487105028176      -0.77534435342597
C        -0.93150608647893      -0.49897676175330       0.53561648454297
C        -3.02135203825524       1.63116034659652       1.28129435011078
C        -3.51486318598867       0.43226032431463      -0.86985917342529
C        -3.99519223147702       1.49353153491909       0.11439724173894
C         1.40835231776894       1.37207278531644       0.19752954572099
C        -0.34188354995687      -1.65626254453831      -0.30788403583261
C         2.64866172199662       1.90108425336628      -0.53579700426552
C        -0.20373382660613      -2.92677697087775       0.54244032885949
C         3.86297522270703       1.96991973005441       0.39638796294251
C         0.38127300874364      -4.08236941618712      -0.27741862458146
C         5.08141016031866       2.52909981448474      -0.33304612779134
C         0.50098594619612      -5.34864947806605       0.56554519051012
H        -1.53691993730187       2.86867704209110       0.32549268156523
H        -0.93012651755713       1.89238212324658       1.69170177625981
H        -1.76302270259370      -0.03993579964640      -2.05533107960749
H        -2.09458095953279       1.68541597168079      -1.87418375039147
H         0.07036198880610       2.29555890064932      -1.22633431730347
H         0.49738608110266       0.63233180723681      -1.62845417070642
H        -1.90190660799544      -0.85412574873861       0.93296826995357
H        -0.29912532723611      -0.36662481846116       1.44077669006179
H        -3.33009327242526       2.50249018962277       1.89883272077422
H        -3.08275238381763       0.73848583144102       1.93780853259658
H        -3.60673496066668      -0.58133463017096      -0.42859357393261
H        -4.17505608312002       0.45192734833160      -1.76393700075100
H        -4.08538302547636       2.47077452584881      -0.40923759162414
H        -4.99951784101134       1.21499397966498       0.49933385214035
H         1.18221302888609       2.05994296359867       1.03749877650623
H         1.65318374769662       0.37181994982869       0.60992622070822
H        -1.00663397016229      -1.88871087146391      -1.16429724734622
H         0.66311303528914      -1.39242668328158      -0.69475676730281
H         2.43298185018414       2.91812004342920      -0.93162526995788
H         2.88425010653322       1.23167939500772      -1.39257297192459
H         0.46240965931963      -2.71942141564136       1.40891478493487
H        -1.20447689931011      -3.22136496941234       0.92900114574875
H         4.10412663387534       0.95232104031996       0.77436311227626
H         3.63374131600222       2.62418367623698       1.26530895115863
H         1.39037089461710      -3.80371732682714      -0.65195323110877
H        -0.27338069927297      -4.29377803181351      -1.15089817145164
H         5.93479041840456       2.60422298727138       0.37302777608009
H         5.36893343897576       1.85932719935781      -1.17162413239245
H         4.86329195178325       3.54230316452855      -0.73239280215175
H         0.92951711505014      -6.16623593996394      -0.05134345230677
H         1.16903333466735      -5.17130452158971       1.43515280352281
H        -0.49963138821696      -5.66513557546589       0.92978799343881
S         8.83440452560147      -1.03916359529814       1.73487030455326
O         9.69909693680310      -1.33479357331478       0.50041562411205
O         9.47747885068205       0.23013496127588       2.31312739632630
O         9.26182666379514      -2.12968228179601       2.72822473740790
C         7.04866153876629      -0.93013660630744       1.42083395023443
F         6.58255877000021      -2.14964510688812       0.96754416377996
F         6.81114383748089       0.03519652836381       0.46275695318236
F         6.39227966331853      -0.59152982001986       2.58924346617671
