37
C11H18F6NP optimized with DFTB in AMS.
N         2.27557615027026       0.14962055745699      -0.77580421021310
C        -1.49574375307338      -0.10260113642694      -0.97065184232393
C        -0.11492211656753      -0.17443575708484      -0.31459348318949
C        -2.58014834138369       0.10194852597668       0.09166714515452
C         0.98564914135178      -0.20809186358649      -1.38273279587256
C        -3.96931120004132       0.18519628171017      -0.54711299255539
C        -5.05035323025422       0.41736510698446       0.50728406844660
C         2.86534594397985      -0.71768037154457       0.06654835168228
C         2.78535222117378       1.37099399926756      -0.97750375024191
C         4.01831489553532      -0.37091554412975       0.73230549982344
C         3.94323847375191       1.76641689657424      -0.33147428224579
C         4.56945756711687       0.89381320359649       0.54021521279025
H        -1.68864467345463      -1.01875906732038      -1.53992950789784
H        -1.51341942560110       0.74147002955601      -1.66677809876118
H         0.02647744538937       0.70932432970158       0.30890158366518
H        -0.03594680108877      -1.05994627937593       0.32381288500335
H        -2.55287289606526      -0.72536747138965       0.80967492863697
H        -2.37249700925797       1.02861119375521       0.63566766547167
H         0.77442924852808       0.52309458015374      -2.16416398740964
H         1.07859458085805      -1.20193283288609      -1.82867952274335
H        -3.98642891737809       1.00621667683819      -1.27129348294830
H        -4.18067371886092      -0.74378565346287      -1.08873001223903
H        -4.86462274333048       1.34847938775843       1.04380609272138
H        -6.02967459493789       0.47924385251577       0.03200636534911
H        -5.06467417235731      -0.40164989014346       1.22814796589151
H         2.39087714978683      -1.68383453726784       0.18935565634360
H         2.25387930213299       2.03136382038639      -1.65004420975402
H         4.47476195657551      -1.08326148376897       1.40767216107799
H         4.31415140342574       2.76972258823625      -0.49635630945040
H         5.46737689902836       1.18698466581199       1.07025977765306
P         0.43716148472837       3.64123979288526      -0.09516856373683
F         1.29717715836129       2.40311033242397       0.67538123925973
F         1.86741057879406       4.11292213107531      -0.79567653615750
F         0.20876257775787       2.59155111367071      -1.39724788594451
F        -0.37352778172655       4.80138545206284      -0.88761183907539
F        -0.93972494165327       3.05897168241542       0.57684887620391
F         0.71035692788610       4.61047444817411       1.17960627858560
