43
C11H24F6NP optimized with DFTB in AMS.
N        -0.51378228034532       0.07831273110594      -0.10487007562030
C        -0.54847006865167      -0.70408050896162      -1.39673601966135
C        -1.74398103299239      -0.33103301076222       0.67404735726086
C         0.71924670467486      -0.27588770187100       0.68023256878082
C        -2.00027635368452      -1.11132201138961      -1.57625383831423
C        -2.43955327800038      -1.41219947027880      -0.14684402467822
C        -0.57276751538472       1.54501829296068      -0.43940420248755
C         2.01843833130706       0.09289078703870      -0.02875875491518
C        -0.46927682520560       2.48253084926901       0.75919593487226
C         3.22417303340624      -0.44977808436240       0.74477291284649
C        -0.60587464378013       3.92173538755092       0.26228680618622
C         4.51980205859178      -0.03038683843555       0.05212321945458
H        -0.16531997694903      -0.08755448987892      -2.20879800625908
H         0.08279495656559      -1.58675615019040      -1.27847423912783
H        -1.44904624014672      -0.67795616284187       1.66442600467778
H        -2.38676274202852       0.54311185037375       0.78517036553238
H         0.67185658614075      -1.35488490052879       0.85639577703045
H         0.64989165308291       0.23244507847570       1.64494611249696
H        -2.58627311912049      -0.29063295991068      -1.99678875591106
H        -2.08699980551523      -1.97937044396708      -2.22992907242865
H        -2.09371163635547      -2.40403950593816       0.15569492300344
H        -3.52160446285297      -1.36335829444704      -0.02068462914836
H         0.24570163737990       1.74955365698223      -1.12770110936348
H        -1.51608103304523       1.70170174054338      -0.96845905305571
H         2.02774286883690      -0.31976153643949      -1.03885516137979
H         2.10925603902678       1.17679660071554      -0.11135231275539
H        -1.24457544912244       2.26440944229749       1.50061383851904
H         0.50427364983052       2.37016036927073       1.24293824007776
H         3.20924838614547      -0.06335164100064       1.77007463732649
H         3.16715986412675      -1.54298180184195       0.79668891133173
H         0.17380032402694       4.13765443790051      -0.46787001359439
H        -1.57809003722082       4.07635182727899      -0.20718859092638
H        -0.50801580885448       4.61108266279668       1.10002158652516
H         5.37744282093004      -0.44858160647453       0.57898347559759
H         4.52968253904356      -0.38568761208102      -0.97825020439054
H         4.60857001959290       1.05595641650932       0.04149059229318
P         2.16043918248466       2.27959052731671      -3.25815569558185
F         3.57479359451910       3.07913632602105      -3.29117576051000
F         1.92967476941415       2.75191178422726      -1.65497741880772
F         1.33612028352357       3.60304807523200      -3.74177398974896
F         0.69226348159163       1.43623458896696      -3.15523337975330
F         2.33629992994606       1.76832065138457      -4.79225564669939
F         2.91796324496804       0.91279069248364      -2.69860317799445
