53
C17H29F3N2O2 optimized with ForceField in AMS.
N         3.07951698041720       0.91958444355328       0.00083107422197
N         2.91885849133646      -1.29114601498748       0.19274092384858
C         1.47495229464743       2.77828557456847      -0.26727912360146
C         2.84216569852099       2.33536165636232       0.27688170550724
C         0.99979312609154      -2.60627429862618       1.03331909188838
C         2.50104113916248      -2.59579614678773       0.70520912386734
C         0.31524064705452       2.08729966967282       0.46697506291804
C         0.13901426500773      -2.28800110367064      -0.19954606163122
C        -1.04474524358847       2.53845677625702      -0.07598888515430
C        -1.35324597325391      -2.27555820346772       0.15051486069216
C         2.82815854175900      -0.10915739033829       0.83360730032145
C         3.35131854751263       0.36974320211008      -1.20003251378826
C         3.25922827631210      -1.00092293362360      -1.07919953681180
C        -2.18541096490550       1.84931054280645       0.68343431914504
C        -2.18880919462588      -1.78218915944883      -1.03783130860552
C        -3.54089924085045       2.16042007962549       0.05749596224743
C        -3.67031904990587      -1.70840666850405      -0.68083141402825
H         1.38420263393884       3.87855742849059      -0.13749320924962
H         1.42022402240495       2.55471034320727      -1.35523482935657
H         0.79493004578112      -1.86433989114484       1.83582150435574
H         0.72839830732224      -3.61211479262526       1.42096881416267
H         3.64421787732540       2.93947335395621      -0.19961504522877
H         2.88806125803131       2.52379269727155       1.37208078364339
H         3.08301954027576      -2.83130148889355       1.62205279725845
H         2.71420377519629      -3.38696305998078      -0.04513130904187
H         0.37674531805377       2.31882819718079       1.55302787107310
H         0.39444236993156       0.98804042083330       0.33535523859560
H         0.32726510105683      -3.04718852537255      -0.98996077266785
H         0.42002727525333      -1.29065949603336      -0.59970368118669
H        -1.14399937986383       3.64071020834364       0.03377113267131
H        -1.10859034847868       2.28058946456438      -1.15628284291409
H        -1.52242461493291      -1.60516518985695       1.02126180485395
H        -1.67439695148043      -3.30282908307793       0.43070754895476
H         2.49169880538703       0.00527414768017       1.85691812256952
H         3.53240592738656       0.92461817391178      -2.11146092083537
H         3.34985140725882      -1.72371452337210      -1.87901221621214
H        -2.03486803997693       0.75018949421825       0.67182941537147
H        -2.18704787610942       2.18833478350327       1.74216289018149
H        -2.05747078755400      -2.47225998992966      -1.89953812886724
H        -1.84666087942992      -0.76944328280926      -1.34491755891420
H        -3.73767803010952       3.25297202850916       0.08670477627158
H        -3.56962206756660       1.80681499282787      -0.99535478568625
H        -4.33946321834971       1.63815135934051       0.62571921529487
H        -4.24189911026793      -1.31785949371900      -1.54904602143604
H        -3.82836453849491      -1.02577242717655       0.18085001538315
H        -4.05516856814368      -2.71790175336522      -0.42386361914742
C         5.50825007952581      -3.66611523635194      -3.10450404373254
O         6.41768924226519      -2.86311092275407      -3.24128963741872
O         4.48614513004782      -3.53581315606445      -3.75880691079395
C         5.63993327293641      -4.81055980798686      -2.14210814547616
F         4.63550547547179      -4.73901369773133      -1.19621366162170
F         6.86492315329187      -4.77025934062299      -1.49921110212561
F         5.53122924032378      -6.00629394727150      -2.82719560276505
