27
C7H13BF4N2 optimized with ForceField in AMS.
N         0.06012422047512      -0.62034823395179      -0.44343270184092
N        -2.00369828943131       0.12907674397205      -0.09892348115043
C         1.43211858985684      -0.71710221372624      -0.93867178713257
C         2.44349752777975      -0.39585143885964       0.16783839989313
C        -0.84845973766544       0.32186168475702      -0.76379319782752
C        -0.54291286747961      -1.43785956831441       0.44410838104187
C        -1.82457461818016      -0.97116863477701       0.65863420033651
C         2.29651181832079       1.03556265122066       0.68227847675403
C        -3.19839120867225       0.96200635588707      -0.15310326467740
H         1.58208632198544      -0.01659186863038      -1.78945902884736
H         1.61312938373291      -1.74610272811153      -1.31701873283504
H         2.32058532464319      -1.10780123199818       1.01253628863296
H         3.46790451373473      -0.52341077576214      -0.24161196112166
H        -0.66509712669648       1.14062957772645      -1.44967755672316
H        -0.08247247998659      -2.30247153840436       0.90608966402306
H        -2.56570175141633      -1.39538663088333       1.32441546437930
H         1.31669577343911       1.16761560978995       1.18889204159236
H         2.37688313424795       1.75955239404666      -0.15666448132489
H         3.10195174853216       1.25108883046512       1.41537235542375
H        -3.04423655049204       1.81851360353790      -0.84378476236585
H        -4.05848147177265       0.35965947745322      -0.51318294976059
H        -3.42420582113727       1.35597582789286       0.86016609338597
B         7.09881169209613      -0.57881340867844      -0.61713373165759
F         8.22989890477928      -0.27948374434419       0.18787665782558
F         6.02691611161625      -0.99923783116909       0.21347571977741
F         7.42720904725222      -1.61794785478726      -1.52796530415825
F         6.71211748533827       0.58061497714903      -1.34085475364270
