33
C9H15F3N2O3S optimized with ADF in AMS.
N        -0.45812480958158      -0.13555739756587       0.65140028843941
N         1.64275787754493      -0.66848109922211       0.53475746526470
C        -1.74333648225417       0.32930491836843       1.20618448791788
C        -2.47306722938055       1.28058057835179       0.26374968604994
C         0.68323985390806      -0.21155753219849       1.34899165394344
C        -0.21803908887697      -0.54320302653849      -0.64452167502562
C         3.05732262797635      -0.84793423016210       0.90752550461788
C         1.10424613251869      -0.87337772893170      -0.71927525727846
C        -1.67105885756193       2.53262407658238      -0.07442142288736
C         3.95759269504338       0.13232628494414       0.17730193297618
H        -1.48543485197049       0.84537323373778       2.14180927310119
H        -2.35107946324252      -0.56358430451455       1.42734729183257
H        -2.78265115411665       0.74506064521071      -0.65219294481387
H        -3.41163462801934       1.55307014201048       0.77742909814920
H         0.83249684330814       0.12853502104114       2.36765807823007
H        -0.99308651010254      -0.55047314389247      -1.39930997077189
H         3.11117246634766      -0.67730320026400       1.99055844734105
H         3.31422807278579      -1.89745539924624       0.69181157833024
H         1.70190497960801      -1.22308317862424      -1.55107821732950
H        -0.75517162290134       2.28736674660900      -0.63026323170697
H        -1.35723672333760       3.05358801682249       0.84119002874529
H        -2.26610230123706       3.22165848535895      -0.69169499162895
H         3.87049731710691       0.03548728241552      -0.91490524996499
H         5.00299006998427      -0.06190849536658       0.45821095455543
H         3.70424962915341       1.15607764089621       0.47663824213161
S         1.62710559803223       2.74508090972363       2.64404395139279
O         0.20024318664079       2.33838005874946       2.63020381791368
O         2.55530483621268       1.58928717385567       2.67719546439569
O         1.96872535849021       3.88478454474623       3.48714014275649
C         1.87971817963213       3.40584980878214       0.89723270148730
F         1.07409520531835       4.46520941133335       0.63490253235143
F         1.60539427040415       2.44427519722805      -0.05278428434355
F         3.16636650526662       3.79486463875924       0.69461792892770
