49
C13H16F18NP optimized with DFTB in AMS.
N        -0.48186058667707      -1.34865166836307       1.07148679146447
C        -0.96721793103569      -0.14335227763095       1.82882192153146
C        -0.09871172438509      -0.94677597113620      -0.32000109443956
C        -2.12004021467595       0.56314502967488       1.12826657139158
C        -1.24921334173991      -0.27522530392766      -1.06154740354227
C        -1.73946586204016       0.95434165073479      -0.29740695834524
C        -1.49980740898932      -2.43594421142652       1.04711690445740
C         0.72408013859813      -1.87702225815366       1.76597976138525
H        -0.11019074146400       0.53007354286891       1.92358568945769
H        -1.26673507539922      -0.48301754323175       2.82061017776560
H         0.23088492946925      -1.84823298369852      -0.84209020119033
H         0.74687434386110      -0.25803914981941      -0.23355976104479
H        -2.35517223205401       1.45658113256630       1.71164542772274
H        -3.00958859521050      -0.06849028734059       1.12276605649037
H        -2.06945009657880      -0.98204302660572      -1.20800420042687
H        -0.87928714333337       0.01822848266562      -2.04728807656228
H        -2.60744452584868       1.37783587093593      -0.80663021751486
H        -0.94987453678458       1.71299507110759      -0.27848096759281
H        -2.44725494249609      -2.05653719052967       0.67959170798675
H        -1.14362300760979      -3.23571511339664       0.40094000557394
H        -1.63460092898012      -2.80987527795119       2.05815360364863
H         1.49946127128339      -1.11331832620743       1.77357483135602
H         0.44955872882425      -2.13882295006147       2.78576547780341
H         1.07683225797292      -2.76085928148713       1.23761297831511
P        -4.37586675646786      -2.46343970903728       3.66676553106267
F        -3.36881186434667      -3.71527850762879       3.10826476076461
F        -3.21009824414689      -1.35482635102719       3.04340586047191
F        -5.49978536704491      -3.53805484547514       4.26104633381180
C        -5.23329581510710      -2.55830516267541       1.89710635868189
C        -3.33583614431853      -2.63147255247861       5.32791242423264
C        -5.40171250896690      -0.85703439192458       4.22096632720836
C        -5.11582177353669      -3.88387462496888       1.09535586854173
C        -1.89384633200756      -2.05270254858588       5.33554398420913
C        -6.72654264804335      -0.97043824237579       5.02223522883907
F        -4.74423408992953      -1.60972155209664       1.05743563035132
F        -6.54464393159738      -2.31726801620077       2.04383464132897
F        -3.20455022335548      -3.93776020876344       5.61026375038961
F        -3.97581437174800      -2.07171890533386       6.36794200679344
F        -5.68078041721846      -0.14390870336917       3.11099854652526
F        -4.56489559295325      -0.09447475165679       4.95684979235347
F        -5.97090844126106      -3.87893239191354       0.07126204872364
F        -5.35749859762504      -4.95797385992895       1.82723159453606
F        -3.88255072835995      -3.99577481221415       0.57128331181783
F        -1.25340608380385      -2.37288548763326       6.45546542396381
F        -1.16419128584502      -2.54549332397864       4.31182608105981
F        -1.87149155461742      -0.72711455978215       5.21865141655547
F        -7.16145668905826       0.24504557546702       5.36278643663483
F        -6.55984699916756      -1.67286049324897       6.13727052425418
F        -7.67489709528007      -1.55571168795550       4.29834687349712
