49
C13H25F2N3O4S2 optimized with ADF in AMS.
N         2.16789040133142       1.98292817354706      -0.99079333999385
N         0.16170384419924       1.83616437967269      -0.16505114086343
C         3.33260207698487       1.89277899711112      -1.89302068653360
C        -1.24423091082827       1.44225787806947       0.02391084010272
C         3.95148215464027       0.50559162817422      -2.00593007461088
C        -1.40482237030472       0.22188926399741       0.92233449302299
C         3.20606268059659      -0.46372838768285      -2.92053881658319
C        -1.03034470779508       0.45420716576228       2.38356894435364
C         0.94961812417468       1.45320261759296      -1.18091015115207
C         2.15941152753489       2.69274095974541       0.18922394706893
C         0.90195480444803       2.60166765384616       0.70692137648136
C         3.98261273973875      -1.76655052940703      -3.11164834873821
C        -1.10439954252665      -0.83771266547466       3.19639317921667
C         3.23839522709454      -2.76893959319674      -3.98741042782463
C        -0.65388341126511      -0.64782104008169       4.64203549677390
H         4.06209509745459       2.60430555006594      -1.48167945580483
H         3.01455107376210       2.26957687056205      -2.87872691397543
H        -1.65591762801467       1.25366154126330      -0.97854626218589
H        -1.75892470510728       2.32352889780483       0.43864849416382
H         4.07749942700313       0.07764232275059      -0.99846578245690
H         4.96912951088296       0.66008982115670      -2.40830028466197
H        -2.46427200912564      -0.08412950079215       0.85015061596622
H        -0.80168390929244      -0.60008759659953       0.50354716284265
H         3.03205776653136       0.01422387782835      -3.90510655878909
H         2.22097001826148      -0.71876395847029      -2.49395317332859
H        -1.69730678577114       1.21871471920397       2.82840586294331
H         0.00195494144696       0.83188832447773       2.45257851433960
H         0.65792494279551       0.80349352009180      -1.99470304513954
H         3.05441587545421       3.15447479327551       0.58522493770060
H         0.49234105795756       2.97726013781616       1.63517922356754
H         4.16334211691064      -2.20933675481289      -2.11906527235975
H         4.97138488435707      -1.53830167771904      -3.55007494692218
H        -2.13551215026413      -1.23583917985266       3.16641413718510
H        -0.45999099856997      -1.58964385686104       2.71070110698841
H         3.06182791063697      -2.36664060617180      -4.99853800791495
H         2.26205962233522      -3.01746924631565      -3.54147120500913
H         3.80918448248518      -3.70376996494055      -4.08811959407123
H        -1.28953948861276       0.08364944552404       5.16734142308225
H         0.38473233813683      -0.28215772900861       4.67779302721637
H        -0.69727810889306      -1.59681586493585       5.19634790712440
N         1.92910451396407      -0.36089887898801       1.14407527291133
S         2.97626001657303       0.01276990075298       2.30870668419517
S         2.01842703674050      -1.78419680524679       0.40499525734834
F         4.24661873319016       0.64859741640813       1.41844608342722
F         1.41596597541397      -2.82360673311639       1.53228595158530
O         2.45449279094142       1.17925546950006       3.00160278102026
O         3.56449490466136      -1.08750808639680       3.03869074139893
O         3.34641600578524      -2.28880210980774       0.11839358670491
O         1.00002559054609      -1.77297668612217      -0.63795159671261
