35
C9H18F3NO3S optimized with ForceField in AMS.
N        -0.36177040842263       0.37481563417934       0.07789300173052
C        -1.41959059016425       0.65216018363795      -0.93487840021653
C        -0.84550249247764      -0.80698894962609       0.85122258137121
C        -2.67836907832429      -0.06899720061207      -0.49759552929478
C        -2.15857014229480      -1.27297136198925       0.23991367813668
C         0.92707505612154       0.08311238393134      -0.62395750016936
C        -0.22610195535776       1.55688825555611       0.96843188645942
C         2.15211180079244      -0.05539462897819       0.31039335353888
C         3.36829570777301      -0.57824770906185      -0.44950475585401
H        -1.14555856881928       0.25926182475490      -1.94218949823647
H        -1.62484240107799       1.73978224611228      -1.06881886020353
H        -1.03051377025779      -0.56003496649787       1.92277924144352
H        -0.12804306896933      -1.65690362425763       0.84546072265699
H        -3.31159023258358      -0.36065290445965      -1.36422774259675
H        -3.26393890136517       0.57551106157350       0.19444860063617
H        -2.87799628615086      -1.62109464152978       1.01280012247071
H        -1.96459238044727      -2.09699002749956      -0.48283831291641
H         1.15035297698755       0.89400891949399      -1.35546457808201
H         0.82262427717951      -0.85735042529135      -1.21454888102937
H         0.19952169250371       2.42429033281126       0.41554473327641
H        -1.21441261219917       1.85769254601841       1.38218812832526
H         0.42991505912434       1.33731560619014       1.83842704559207
H         2.41888642881109       0.93698981573542       0.73184120803668
H         1.93707044164199      -0.74581735106885       1.15195224394617
H         4.23973147840241      -0.63199713718927       0.23668907808070
H         3.16852624661519      -1.59550927376398      -0.84833421207044
H         3.62071609369792       0.10312582602217      -1.28994915566902
S        -2.14770089021352       5.38273263952640       1.83536344764075
O        -2.54034022619572       4.55863646599780       3.07032554173805
O        -3.42146961979566       6.18421239143027       1.53032095595465
O        -2.11700402804714       4.33775718298381       0.71103154356987
C        -0.63903739187456       6.37181287695907       2.01302923219498
F         0.41673366777239       5.54463839015410       2.34455263002987
F        -0.82030331131951       7.31120258283847       3.00981447543896
F        -0.36667493246516       7.01223578591867       0.81960629117017
