42
C10H18F6N2O4S2 optimized with ForceField in AMS.
N        -0.36748662294086       0.38617233969533       0.06785392614765
C        -1.42219702661158       0.66103242119791      -0.94899888001470
C        -0.85681982925065      -0.78974108344238       0.84659225760079
C        -2.68335156611127      -0.05581297999526      -0.51198495359704
C        -2.16773814408244      -1.25626963533997       0.23290776282497
C         0.92136696489733       0.08548568283389      -0.62960968002645
C        -0.22831881473816       1.57321659547576       0.95114338156349
C         2.14280008916419      -0.05888022717191       0.30822762175998
C         3.35799600844411      -0.58609540972623      -0.45049861853406
H        -1.14620117371369       0.26369501699889      -1.95412631211417
H        -1.62581450072940       1.74832157674443      -1.08696749030624
H        -1.04557140436398      -0.53571691471761       1.91589690281782
H        -0.14214080828116      -1.64207085227712       0.84775919758181
H        -3.31522013074979      -0.35191961493260      -1.37776178334478
H        -3.26931844174920       0.59240233071111       0.17638204757983
H        -2.89008256884834      -1.59370272738108       1.00498377398683
H        -1.97442933267726      -2.08578623965950      -0.48378620528164
H         1.15143984060640       0.89414862283215      -1.36131605983591
H         0.81301018439070      -0.85517025305905      -1.21893690149397
H         0.22085028669826       2.42862228079311       0.39862644939667
H        -1.21849706109355       1.89651217032286       1.34397000361151
H         0.41087056588319       1.35003793531995       1.83304664161412
H         2.41249418890189       0.93154839509940       0.73207989574867
H         1.92389753155980      -0.74944749559517       1.14850373313081
H         4.22857072362394      -0.64487836666053       0.23641063874288
H         3.15413939449639      -1.60182369490436      -0.85140464029524
H         3.61418427467211       0.09524309109512      -1.28981011010649
N        -6.24186254240770      -4.05874504437291       4.68988547028079
S        -5.31966391527202      -3.63663213847217       5.97681678405725
S        -6.55545608497218      -3.03330905473787       3.45079678609841
C        -6.37420023003850      -3.01609159208205       7.27062873088781
C        -5.42242428019984      -3.36867503923668       2.11972030040902
O        -4.59400180568008      -4.85116288126709       6.48296778638122
O        -4.32320767345854      -2.57867763420211       5.59132081574013
O        -6.40306448583368      -1.60356582606510       3.89042018180798
O        -7.95795547539098      -3.26342420535420       2.96324894354929
F        -5.60833814030560      -2.68396235007425       8.37120281585180
F        -7.28927009558665      -3.98842506134823       7.62615965919742
F        -7.04868301687607      -1.89464420260416       6.82733358148658
F        -5.63637588795721      -2.46936803454315       1.09296886507435
F        -5.62400924772630      -4.65333609350843       1.65300794124376
F        -4.12361630029164      -3.24788843968873       2.57432688647704
