29
C7H16BF4N optimized with ForceField in AMS.
N         0.83646052664683       0.00012072477367      -0.03747122178904
C         0.07809646012403       1.22971936880733      -0.41003083651059
C         0.07762376675319      -1.22633878165962      -0.41991486388303
C        -1.35467167485791       1.25831255302415       0.15241050270031
C        -1.35181135276719      -1.26175109693317       0.14903352001574
C        -2.12776254991833      -0.00248724328489      -0.23240250072402
C         1.16297452392189      -0.00410748430584       1.41246795150726
C         2.12040794378101       0.00209854375170      -0.78206310680019
H         0.00531050829184       1.31628675622924      -1.51812210438264
H         0.61286735653075       2.14103737879605      -0.05837860994450
H         0.61485525221119      -2.14073123611283      -0.08004329001271
H        -0.00307288086199      -1.29915343543646      -1.52976263639452
H        -1.88533715513606       2.14365943450993      -0.26075390312880
H        -1.34101129304333       1.37493566205449       1.25603854071690
H        -1.33457843099316      -1.38050833325347       1.25236208039145
H        -1.88144100660678      -2.14783445486233      -0.26394241124173
H        -3.10998000787541      -0.00432673839299       0.28739950520831
H        -2.32264747919494      -0.00287811891477      -1.32640674140166
H         0.25781146719457      -0.00433358332766       2.05066392472595
H         1.75779094818010      -0.90453352942678       1.68490157720290
H         1.75855347449054       0.89457846513373       1.68942212162723
H         1.95245754452477       0.00348696317412      -1.88250270561311
H         2.72750718020241       0.90191748951696      -0.53356099707559
H         2.72844601137774      -0.89793149417877      -0.53632773464583
B        -1.93344916343315       0.06399878896855      -4.83775477364895
F        -1.58534076642864       0.87725121576978      -5.94865238688627
F        -1.51032975763908      -1.27062694585070      -5.07560669494041
F        -3.34166226752738       0.08928992858614      -4.65430751534996
F        -1.29486836124753       0.56139405194446      -3.67281009902249
