43
C13H28ClN optimized with DFTB in AMS.
N        -1.55526473745820       0.08145427396192       0.01685321148309
C        -2.57430597362254       0.33012332920259      -1.06393671647592
C        -1.77577100507962      -1.29296288534681       0.59165199281972
C        -0.21230359385160       0.10485755609944      -0.66965937333028
C        -1.63961341270719       1.09821827136662       1.11595303125059
C        -4.00895671364337       0.13917918385421      -0.59532299821023
C        -3.20257135830886      -1.52538376415966       1.06959254323363
C        -4.19633083027304      -1.27908592128722      -0.06237095064028
C         0.99143769235747      -0.09095708259546       0.24602831831080
C        -1.33214766331938       2.52857979623402       0.69598102866154
C         2.26095631709753      -0.13666650242379      -0.61407887695653
C         3.50657682026228      -0.33644632090664       0.25361656162919
C         4.77446766497615      -0.39004485832757      -0.60461036472667
C         6.02080911028752      -0.59174099043216       0.25542596099630
H        -2.35516707602914      -0.39923225666135      -1.85307131081946
H        -2.41454184943951       1.33827364618865      -1.44919448037132
H        -1.07438495531369      -1.42380584156668       1.41772424745809
H        -1.53950412680555      -1.99925515409531      -0.21276430813081
H        -0.13479960165877       1.05929441523491      -1.19522963961122
H        -0.24715130066325      -0.70002302648629      -1.41331517701140
H        -2.64973406047423       1.05217976088607       1.52613167639708
H        -0.94264467870187       0.78459011642885       1.89683428456885
H        -4.65423411633203       0.29910140007040      -1.46300241673442
H        -4.28526545953149       0.87632165512823       0.16568908056786
H        -3.43988811808526      -0.89210078977915       1.93084766305615
H        -3.26277735089841      -2.56688678451095       1.39622540165527
H        -5.21769925442131      -1.41399396512753       0.30122556101864
H        -4.01435384621943      -1.99578853885677      -0.86879413002606
H         1.07524256448041       0.72526130653207       0.97021703503180
H         0.90549483261673      -1.02937119662008       0.79933070536609
H        -0.30591341759864       2.63851666374867       0.35105253441392
H        -2.00733649042690       2.87564303834366      -0.08379793648188
H        -1.46710214792186       3.16488697065092       1.57073751156849
H         2.35209942181279       0.79730649847441      -1.17879951976126
H         2.17914759338424      -0.95718153274917      -1.33333394129782
H         3.40916307711830      -1.26871488976533       0.82030400544884
H         3.58590297782839       0.48538542442943       0.97422493944397
H         4.69133845016668      -1.21154351827882      -1.32359224454232
H         4.86975307902579       0.54232100719459      -1.17141348170330
H         5.95353866770765      -1.52723300001557       0.81248669513646
H         6.90863277457933      -0.62682226939640      -0.37618116685630
H         6.13231064060921       0.22818429405831       0.96655744598462
Cl       -1.43924706292531      -2.36136973469923      -2.42755853511348
