55
C15H20F18NP optimized with DFTB in AMS.
N         1.04658050052966      -0.05503400027294       0.23260054081240
C         0.53126308620413       0.68488435073525      -0.96467608882133
C        -0.18752891925459      -0.28272254685734       1.04992835079317
C        -0.54683559837540       1.62216979305333      -0.42684233821756
C        -1.01847973427243       0.98868967950925       0.89178510305791
C         1.67207128029307      -1.36635446662336      -0.16127520577996
C         2.00780046496130       0.84019163155500       0.97855516961182
C         2.63810610274809      -1.26623649926251      -1.34313835287889
C         2.66223588400126       0.21717835421277       2.19943286780839
C         3.58297199037493      -2.46674141232851      -1.34962686681625
H         0.10333094771389      -0.05055327140694      -1.64931875825626
H         1.35450815019925       1.20476724952851      -1.45413147659970
H         0.08714630749712      -0.50026922819859       2.08105153137575
H        -0.71303513559748      -1.14312498018698       0.63005730857671
H        -1.36268829694264       1.70613160228382      -1.14644517214301
H        -0.14282156999252       2.62138474329694      -0.25472099049975
H        -0.85561317470579       1.66871895588545       1.72989791797732
H        -2.08022070918164       0.73877741005467       0.86064349861437
H         0.85375399232308      -2.04631550079312      -0.41328882154579
H         2.17803517395994      -1.75706741840585       0.72285607395134
H         2.77202139909201       1.14290488668252       0.26535325707109
H         1.44217985814240       1.72687529829522       1.27032532804154
H         2.07119535429129      -1.23726821096686      -2.27831330530533
H         3.22599801787122      -0.35233059395388      -1.27957286515660
H         1.93271157716502      -0.16519119532028       2.91169708295763
H         3.35568987774471      -0.57502164124592       1.92647640368739
H         3.24170753153544       1.00308168838055       2.68319798359230
H         4.19806423183893      -2.46939892682941      -0.45100483333477
H         3.02203172853332      -3.40081996350919      -1.39839866455137
H         4.23798525469684      -2.40454685247910      -2.21731193368204
P         7.30181982417513       1.14991120542013       0.44270834793571
F         7.69317628606361       2.10252596603628      -0.87537936458438
F         7.29851065582824       2.50595037163069       1.42632295720065
F         7.20921098913983      -0.22320175456137      -0.53263907855342
C         5.41561187808122       1.48767972964233      -0.04505271797415
C         9.21619711540086       0.84360260392944       0.65998064095519
C         6.75519878931533       0.08954581733377       2.06016056732787
C         5.06537047698367       1.97298330074285      -1.47211749177708
C        10.06401279557060       1.96430562717338       1.31710496936655
C         6.56403443713707      -1.45323226691430       2.03331670625939
F         4.76243282980398       2.33467022646023       0.77832568739361
F         4.76396942552729       0.29286428043906       0.06656184887526
F         9.74158489653466       0.63004157970717      -0.55684063375880
F         9.42342060342392      -0.27921083669423       1.37441580944827
F         5.56515923493378       0.56825999277884       2.51182167297611
F         7.64943585666639       0.34903700585997       3.03062689438304
F         3.70634965623421       1.91389267627161      -1.61422178985447
F         5.57181536777351       1.19886527634590      -2.41781452957257
F         5.41396344702468       3.22702870270576      -1.69365833503481
F        11.36161240027442       1.65155929773313       1.26406858519059
F         9.89925841745017       3.12220884499214       0.68441448237763
F         9.74020150321874       2.13180811341776       2.59556070724088
F         6.49633630693395      -1.93408511014775       3.27780951167550
F         7.52892443733905      -2.09828465949548       1.39797356002431
F         5.40004366927119      -1.76997518653980       1.43564795593859
