41
C13H21F3N2O2 optimized with ADF in AMS.
N        -0.33865060704399       1.00391829400465       0.18655544667001
N        -0.80410183284079      -0.25231563734456       1.89746922708355
C         1.61318992241912       2.10702875563729      -0.91656877152300
C         2.64617313598955       1.57247934510824      -1.91472738297885
C         0.24061875641801       1.43577724494646      -1.09547208130268
C         3.02681379022733       0.11831763346752      -1.64299119812412
C         4.11825680585038      -0.39966534147505      -2.57830829149194
C        -0.32346949013250      -0.25235116172714       0.64749469126757
C        -0.82167806401034       1.83321137563405       1.17684496464018
C        -1.12052518178183       1.04218136316053       2.24859522267631
C        -0.92716250099816      -1.43647037723312       2.76270390311368
C         4.54379350588928      -1.82017634089064      -2.21344774745865
C        -2.35769843838201      -1.94216683759253       2.83220179025643
H         1.50321068799359       3.20016756981127      -1.01265082097213
H         1.97953170676916       1.89750787900626       0.10137033645348
H         3.55177081561323       2.19768950859926      -1.83092209081973
H         2.27571769089683       1.70011784286554      -2.95060137342720
H        -0.49686074591975       2.09567306502997      -1.57681331966196
H         0.32562667784720       0.52828767959806      -1.70874496499781
H         2.14281449885205      -0.54359940403660      -1.74631202281501
H         3.38686006479867       0.01100893008193      -0.60175074547824
H         4.99212902749478       0.27206227871307      -2.49901756072441
H         3.77520422322531      -0.35030670277981      -3.62972945955362
H         0.09082879428342      -1.10804304439284       0.13141823157773
H        -0.89491140523863       2.90483396892266       1.04021575160915
H        -1.51839064462436       1.29068584019838       3.22454903487761
H        -0.23743747153843      -2.18884580061945       2.35854676247018
H        -0.53163838029546      -1.14611621748986       3.74650108646440
H         3.69962761811965      -2.52201690257687      -2.31787884396703
H         4.88292181535199      -1.84926549417804      -1.16557363497368
H         5.35937895495160      -2.17523005322420      -2.86272357168461
H        -3.03723066992130      -1.18383872973094       3.24803288003795
H        -2.39424638756477      -2.82775326485325       3.48315737585527
H        -2.72193149531582      -2.23164434784981       1.83545026199217
C         4.17949290071883      -1.24934402379678       2.09385842567969
O         4.61827361334478      -0.69518477139286       1.05942983546143
O         4.66945474783477      -1.95581852828562       2.98813262921092
C         2.61646986181279      -1.02679572287465       2.25645880025803
F         2.09347958270521      -1.27651198303072       3.49847588626352
F         1.91346616874673      -1.87786317959169       1.38825746737678
F         2.17970142705387       0.25178307388194       1.93568669805865
