48
C12H22F6N2O4S2 optimized with DFTB in AMS.
N        -0.75809377659579       0.18844578900702      -0.20691423296806
C        -1.73911436377126       1.13253930146988      -0.84797634984942
C        -1.47689155179867      -1.08061585485132       0.16970422830645
C         0.27225477467744      -0.12439114586592      -1.26470219975786
C        -2.96457852892974       1.41462659239448       0.00940999604017
C        -2.70028548291209      -0.84336982287279       1.04523847677352
C        -0.12738705435551       0.77904859785237       1.02038188465353
C        -3.67918425550437       0.11564694785000       0.37340420427576
C         1.37471998482890      -1.09069330335631      -0.84103023283550
C         0.73560217329220       2.00841067943964       0.77637459508338
C         2.29500932916343      -1.34296129142230      -2.03569326772212
H        -2.05379091815458       0.66153240829567      -1.78107231060319
H        -1.20750978915874       2.05572822411227      -1.08398805365658
H        -0.76280777923385      -1.72667296490208       0.68239855893188
H        -1.78158167110065      -1.55450021906789      -0.76644553740215
H         0.70213588013382       0.82777301867861      -1.58416715588247
H        -0.27803645679831      -0.54778372698707      -2.10738701478116
H        -3.62977845976895       2.04223015327646      -0.58899356799506
H        -2.69399268175516       1.97209408439682       0.91135709745726
H        -2.41036418721420      -0.46492762241454       2.03033255136885
H        -3.17839832406680      -1.81550621271386       1.19158574249111
H        -0.93518661551707       1.03637935705845       1.70726105545286
H         0.47265086459315      -0.00902040259270       1.48117380196635
H        -4.51216521480680       0.32709647494965       1.04764048814884
H        -4.08045577397310      -0.34360104280509      -0.53347958800914
H         1.95625954690744      -0.68170635103567      -0.00975602677271
H         0.94217778170181      -2.04330345175916      -0.52895399206204
H         1.08323462040387       2.36223524143218       1.74700693794883
H         1.60768645003543       1.77870104466189       0.16739719461868
H         0.17353927606263       2.81164181166223       0.30380570997442
H         3.10124134644042      -2.01260970533976      -1.73925621228832
H         1.73561866178015      -1.80870678387544      -2.84629204952197
H         2.72813146722368      -0.40885364886717      -2.39537731984494
N        -2.25169702210216      -1.38421931537763      -2.83058093621091
S        -3.61731105669103      -0.93177421766562      -3.55835431829217
S        -1.55080331431400      -2.75144418121255      -3.30523603036993
C        -4.96204713886100      -2.08100113624546      -2.93443958543641
C        -0.55043007475389      -2.31839389636447      -4.82750041735879
O        -3.95406397130321       0.33697361178929      -2.94645372817127
O        -3.61730273115239      -1.02753237481235      -4.99261252619531
O        -2.43796329886475      -3.82163581060873      -3.67044523910336
O        -0.52673650104749      -3.00732471589165      -2.31111660368071
F        -6.08664322856048      -1.39364834322245      -2.81070721997377
F        -4.61184842949518      -2.52435859792281      -1.72809504449622
F        -5.16492120559761      -3.10087612758560      -3.73526533069442
F         0.49711785891966      -3.12502380247286      -4.90458329460039
F        -0.10202818855594      -1.07046863676582      -4.68101092997092
F        -1.24652174684928      -2.40333993554983      -5.93699533288466
