35
C11H20N2O2 optimized with ForceField in AMS.
N        -0.01552593752991      -1.32545417283828       0.34335469531532
N        -2.04325816633921      -0.42000961388899       0.23156727282855
C         1.33846546570333      -1.62674098626837       0.80525934518284
C         2.38426444410678      -0.85776695300094      -0.01327932859687
C         2.22277256009993       0.66199922978393       0.13589157076252
C        -0.93748274166519      -0.58041749780309       0.98395224177619
C        -0.56005377168251      -1.65598694098312      -0.84521975421557
C        -1.81774158927220      -1.09237418607762      -0.91533104058922
C        -3.20791464100618       0.40040936831660       0.55338326083864
C         3.31540755988741       1.41037220822972      -0.62067730557528
C        -3.18357611345484       1.69249650253242      -0.25570857086779
H         1.44361502142345      -1.36114793845107       1.88038369490120
H         1.52333136558713      -2.71836175987271       0.70966955801535
H         2.29897022070110      -1.14160743402007      -1.08502507339081
H         3.39534291951738      -1.15602367442715       0.34041540363156
H         1.23561362558398       0.97918927120122      -0.26478227569386
H         2.27238802472634       0.94217957609703       1.21056809013349
H        -0.78803885861993      -0.12596337540660       1.95543706579358
H        -0.06966517793682      -2.23856003415497      -1.61420490403177
H        -4.13751313711827      -0.16692054638109       0.33244450507407
H        -3.20646063954604       0.65412379374612       1.63606688966754
H        -2.50458389433511      -1.14708672440606      -1.74990707460097
H         3.28523508777880       1.15014968893545      -1.70014944070282
H         4.31400518146349       1.15455730119714      -0.20824716984330
H         3.15778415964481       2.50440046915421      -0.51485496669101
H        -2.25760056150176       2.26335771214782      -0.02976595528996
H        -4.06289175622442       2.31667094136591       0.00780290931148
H        -3.21647401936233       1.46786935293073      -1.34273418093593
C         7.06068810704767       0.23277796824372       1.49431453046360
C         6.85250328585730      -0.34273865747052       2.85953008058294
O         6.92815830065935      -1.54861389088688       3.03023242439612
O         6.60804026701618       0.38861637273232       3.80555001434340
H         8.08443950281957      -0.01025196026022       1.13989514299440
H         6.31891453460787      -0.19950140241750       0.79057265458612
H         6.93923032986285       1.33712396330089       1.51104922762624
