44
C12H23F6N2P optimized with ForceField in AMS.
N         0.21866972728816       2.31170456896466      -0.21323687389637
N        -1.85581963922860       1.50668174781098      -0.19753093337934
C         1.60987428001945       2.51083030754244      -0.61953829478312
C         2.53993400747688       1.50457236034024       0.07715785846070
C        -3.04257424524487       0.75095026638420      -0.59678056942198
C         2.11871874178297       0.05492602916123      -0.20352252664423
C        -3.08120820617653      -0.62250182450999       0.08987245329638
C        -0.74658860918103       1.70838758154512      -0.93537490808831
C        -0.30190158432177       2.50972126122511       1.01474402366167
C        -1.58927129143060       2.01141736656923       1.02408249607783
C         3.09540216424061      -0.95177379134481       0.40863001929443
C        -1.90335076767348      -1.50962888716483      -0.33774448917235
C         2.62326763432444      -2.38270285700766       0.16047187428030
C        -1.97438458034945      -2.88566145542488       0.31488287500418
H         1.92392805460144       3.54562718459650      -0.36480457029928
H         1.70316368291425       2.39247500273446      -1.72175009636230
H         3.57649439093600       1.66748820619515      -0.28985781177912
H         2.53039365229122       1.69047847878255       1.17332028699455
H        -3.95237665278871       1.32685818735041      -0.32209214451690
H        -3.05374299712086       0.61290964874309      -1.70057391392616
H         2.05638966039877      -0.10920717132076      -1.30204803817322
H         1.11841440138781      -0.11898083874326       0.24081485567644
H        -4.03479746010343      -1.12531824954725      -0.18170963215544
H        -3.06899748093935      -0.48592437890035       1.19332329937427
H        -0.61568776603165       1.35012621373442      -1.94908756884888
H         0.23248068270332       2.93410622656542       1.85485589191477
H        -2.26204802945357       1.97560320981648       1.87133856685387
H         3.17177387241529      -0.78298607353335       1.50492826972879
H         4.10214751261036      -0.81870946941903      -0.04037622748800
H        -1.90194046365196      -1.63184478505803      -1.44272527748698
H        -0.94983015401467      -1.03357884840779      -0.03700370230400
H         2.55020241306472      -2.58198887504884      -0.93004152027280
H         1.62786571814316      -2.54729913474255       0.62731597870560
H         3.34700202636965      -3.09753589245691       0.60500248897092
H        -1.96967878489646      -2.78861238419193       1.42174057681682
H        -1.09123935728033      -3.48592662165105       0.00890222947179
H        -2.89489217128729      -3.41742563413275      -0.00535651462197
P         7.83604864254201      -1.40592479055463      -0.99564311825226
F         7.50765203989548      -0.87167438027188       0.60389726628393
F         9.46187245412582      -1.80986876926355      -0.61474317711811
F         7.28250784474790      -2.94728277854977      -0.47654103503044
F         8.13291163711003      -2.01245914053144      -2.57529331575569
F         6.26695939090006      -0.97464790257429      -1.54474933165564
F         8.36354008868483       0.18248090618993      -1.38307885543433
