33
C9H14F2N2O4S2 optimized with ForceField in AMS.
N         1.10894532950158      -0.01393971187359       0.55131604161445
C        -1.24751435395705       0.00779086948115      -0.13341590063858
C        -0.27207742215379      -0.01994787589141       1.04768081118804
C        -2.70229138317240       0.01353230824138       0.34444821862844
C        -3.66966731263976       0.03381468137934      -0.83471135657437
C         1.73991343850965       1.17707869794455       0.31550500875725
C         1.73315996048279      -1.19796281081920       0.26753864036542
C         3.02676604021466       1.20228890951024      -0.22707158450891
C         3.01995126497195      -1.20833267647265      -0.27583598719564
C         3.66643662826518       0.00077999672078      -0.52763452021767
H        -1.06978546959926      -0.88532122215121      -0.77210808304273
H        -1.05558025829337       0.91854993478988      -0.74214266127547
H        -0.45427970794362      -0.92576177763375       1.66849606289454
H        -0.44853548672230       0.86105616626550       1.70469952958733
H        -2.90081132358903      -0.89404382383250       0.94974231249823
H        -2.88574622558397       0.90676913673894       0.97978483726355
H        -4.71377819686381       0.02996310354505      -0.45726566151791
H        -3.51471148620039       0.94860466169143      -1.44524594150158
H        -3.52002759230326      -0.86342897408352      -1.47265885517139
H         1.24335219219555       2.11566231034277       0.53200896682831
H         1.23120715126388      -2.14166680826601       0.44609239487914
H         3.51893943607952       2.14651756866268      -0.42111795383018
H         3.50689617997142      -2.14660274418555      -0.50804264767254
H         4.65906833058037       0.00679165823453      -0.95887873538953
N        -3.32654433734247      -3.13489893486747       4.78433476084280
S        -3.18351150206606      -3.89132135375229       3.34059469422379
S        -2.08170372907232      -2.28661709476341       5.42300594400222
F        -2.26551594042464      -5.27742624600913       3.53158971583183
F        -1.92375751305896      -0.83700819870682       4.60058168215290
O        -4.54590524062487      -4.26080419197178       2.82786558873822
O        -2.49572370484345      -2.99143007701137       2.35459126435565
O        -0.80423200432595      -3.06624622606067       5.28529145412495
O        -2.35342123835580      -2.00988906919589       6.87392463405944
