46
C12H19F6N3O4S2 optimized with ForceField in AMS.
N         1.90074571114151      -0.94310914510575      -0.23437177363930
N         3.12747837370646       0.90809531601320      -0.14037062012879
C        -0.37946744393309      -1.88107677589259      -0.06462926794219
C        -1.04276564906122      -0.52149618328557      -0.32708978005807
C         0.99792651174975      -1.97987734944592      -0.73242994713424
C        -2.45381889272342      -0.46939692116495       0.26646516970120
C        -3.09042249605655       0.90658691036862       0.03970347133637
C         2.35273780829778       0.12716290483831      -0.91702188777829
C         2.40879179478616      -0.83622903791667       1.01042834707194
C        -4.50218107396165       0.96238338242349       0.61473798682545
C         3.17263999417497       0.31286137801540       1.06762772938209
C         3.76392208403037       2.16366313490782      -0.51614324049644
H        -0.27379036211375      -2.04271619936088       1.03027469919939
H        -1.02457351327313      -2.69144408441768      -0.46919515311791
H        -1.09733936716002      -0.34124968083453      -1.42337621357577
H        -0.42856525586166       0.28359538832463       0.13242087736948
H         0.87969333625160      -1.88511439471580      -1.83450905565732
H         1.43794029789357      -2.97956671425483      -0.52735413680542
H        -3.08318311046557      -1.25161963448911      -0.21241880857653
H        -2.40214558173856      -0.67532537683110       1.35848632523293
H        -2.47178529934159       1.69085633468720       0.52845152034088
H        -3.13656290176026       1.12447532028642      -1.04970248775752
H         2.10456570038480       0.34400388671870      -1.94865624955834
H         2.22386321923145      -1.53175915502552       1.81892827789168
H         3.70687317637853       0.69342018530706       1.92877775326142
H        -4.48084408910459       0.77057372133175       1.70869749593037
H        -4.93546499884955       1.96947609343125       0.43872151535228
H        -5.14919367892679       0.20586871001348       0.12180768727424
H         4.86579542222773       2.05584837683172      -0.45031120310734
H         3.49405682521129       2.44091730754329      -1.55736668667079
H         3.42975006375149       2.97250581345803       0.16755014107790
N         9.08678943191664       2.98131414312773       0.28158429983737
S         8.77624737182271       3.15128531507554       1.88179386700653
S         9.87159646068017       4.12145553036422      -0.59639190338706
C         7.16382987921897       3.87738064838115       2.09366577076514
C        11.59215838455497       3.68017336564426      -0.72378071999283
O         8.78617291419232       1.79610058091487       2.53055087855069
O         9.80907198384098       4.02888200225535       2.53291038900982
O         9.74868836009098       5.47302365940238       0.05102328401399
O         9.28150257060748       4.16981470222013      -1.97730017662541
F         6.90238461961422       4.03622717090262       3.44105817416464
F         6.20923341562072       3.04812465458671       1.53911229587662
F         7.11821913382994       5.10954163872226       1.46946166781992
F        12.26263325738330       4.64578445491195      -1.45019680001520
F        11.71061418135668       2.46087788011100      -1.36358690710586
F        12.14637583388386       3.58999968922031       0.53908153503826
