38
C12H22N2O2 optimized with DFTB in AMS.
N         1.81605127162414      -1.21937170943081      -0.47167411201737
N         3.00362116300886       0.56433917169160      -0.29224090159399
C        -0.50239235049076      -1.98452408500492      -0.25066439405231
C        -1.11325923964180      -0.60389807237354      -0.49566437382874
C         0.83437672033106      -2.17618800831349      -0.96838611400529
C        -2.45358701827871      -0.45913217323879       0.23217032005113
C        -3.06452659943133       0.92691201139554       0.00405220775431
C         2.11792866236803      -0.06773851865878      -1.06791989849673
C         2.49921509157847      -1.34282700552321       0.71010783674780
C        -4.40143770615000       1.07318704221676       0.72927333790111
C         3.25239751656167      -0.21315114803945       0.81459772065664
C         3.61684044883812       1.84828016409680      -0.57497660502440
H        -0.34500312353686      -2.15011791685602       0.81778932977565
H        -1.17995712424579      -2.76334220563812      -0.60992936042699
H        -1.26145256657651      -0.45044530158701      -1.57135639741353
H        -0.42467735125859       0.17209990091777      -0.14125132775919
H         0.73491680761055      -2.03719279704407      -2.04881154517046
H         1.21175231592274      -3.17795358413967      -0.74625326100427
H        -3.14664208928953      -1.22783143977496      -0.12560137330194
H        -2.30183664212011      -0.61989033680354       1.30458614267687
H        -2.37013070904516       1.69477418945463       0.36309254127082
H        -3.21336410544474       1.08790595288176      -1.06946462616987
H         1.73398330660253       0.28718732706403      -2.00886139354885
H         2.44037422351105      -2.27954724983038       1.43914052504772
H         3.93982400718213       0.10457929592465       1.57845569373685
H        -4.26999306853197       0.93608844064937       1.80344313287564
H        -4.81681060663115       2.06594815597366       0.55384529363294
H        -5.11408633350231       0.32965963585170       0.36976516724909
H         4.67888829032433       1.70650646852980      -0.78217622857968
H         3.13066342328291       2.29606344446440      -1.44043118883318
H         3.50097033526278       2.49996578995922       0.29142842752327
C         1.54996826350595      -5.45543238533668       3.02943514053274
C         1.63342133602159      -4.23406386948309       2.09298723204649
O         2.49170446306019      -3.36475462832402       2.41350267850035
O         0.87392245541202      -4.18877107223849       1.11683968325820
H         1.31677501596464      -5.11661361835836       4.03793423358136
H         0.78285043837865      -6.14527243098000       2.68374906721872
H         2.51698595372290      -5.95634429459430       3.04774310698909
