37
C11H23NO2 optimized with ForceField in AMS.
N        -0.40455858976143       0.16831953882893      -0.06815808083066
C        -0.97559056286271      -0.89461678090200      -0.95229571001831
C        -1.45964477289514       0.42532603510146       0.96035927301764
C        -2.43771000064648      -1.08004400303134      -0.59395225693533
C        -2.50915925937662      -0.66313941727894       0.84811229723035
C         0.83887547368814      -0.33200319477653       0.60483183853903
C        -0.15595477259824       1.40865929738551      -0.87269880204605
C         2.02016748892696      -0.60569253509281      -0.35781405223992
C         0.46325503720670       2.57193617732900      -0.07626743999191
C         3.17218132548470      -1.29365646355759       0.36879483265912
H        -0.48017897918912      -1.88143016368893      -0.80014967689032
H        -0.87963658132813      -0.66365326767438      -2.03818313485104
H        -1.98347274084198       1.39512547824524       0.79340283765232
H        -1.06256964252519       0.46252950400736       2.00084012591925
H        -2.76804126381660      -2.13323700681344      -0.73010130407995
H        -3.06806056877375      -0.40596857664466      -1.21532547878120
H        -3.52284861798713      -0.29206834605913       1.11539460656852
H        -2.23750025977445      -1.51958656256087       1.50441484019464
H         0.60861166782921      -1.27101517990426       1.16066419445960
H         1.18216933675786       0.39002009801822       1.37849835283129
H         0.50722408878223       1.19288206420555      -1.73881921276338
H        -1.11140438844495       1.76978291705779      -1.31861045668625
H         1.70422956819763      -1.25069893930566      -1.20320132745969
H         2.40757031434528       0.34584954902900      -0.77639458576016
H        -0.11000819272864       2.78834796485323       0.84769964635410
H         1.51761791802884       2.35808790271124       0.19230850427069
H         0.46026573408451       3.48602431245235      -0.70621648725442
H         3.55035272826077      -0.64788567057415       1.18955003842138
H         2.84037277022959      -2.26672224384520       0.78838955611603
H         4.00000768190537      -1.48117159967773      -0.34609215502384
C         6.97516301799527      -2.02417132638617      -1.76176755710043
C         5.98769302475899      -1.85150044970780      -2.87261069808754
O         5.34217042534492      -0.81951339090028      -2.95955657380294
O         5.82504916490356      -2.73824822892153      -3.69519803093408
H         7.75815909067106      -1.24049859858761      -1.83393685596489
H         6.45794907647283      -1.93377080193663      -0.78384916683782
H         7.45959178497612      -3.02237550619722      -1.81977558799383
