46
C14H30ClN optimized with DFTB in AMS.
N         0.20202335443500       1.16615326341502      -0.32557786244258
C         1.20833718835054       1.80967446229786       0.58130788763538
C        -0.46662398895108       2.33764008748205      -0.97781216074170
C         0.86237858142329       0.31656133735128      -1.37397475549498
C        -0.79675926764277       0.40222807087672       0.50649224897337
C         0.49264235908554       3.02386193038883       1.15868503642000
C        -0.56006922015959       3.41144978562893       0.10722958110292
C         1.59374009794537      -0.92113130047260      -0.84336283895987
C        -1.74808329374311      -0.48103946512254      -0.29238356415382
C         3.10026273039108      -0.70226197259827      -0.66365631611609
C        -2.79156277915501      -1.07282264156906       0.66348026875173
C         3.74935373599960      -1.94910276810963      -0.05447259052016
C        -3.74256634458508      -2.01893780140672      -0.07528625934702
C         5.25342332306887      -1.75839824315692       0.12353915651007
C        -4.78068153408617      -2.61231835900078       0.87530829267093
H         2.05740943245875       2.11506805224545      -0.03371470733822
H         1.52575034711561       1.08438345514992       1.33992107747810
H        -1.43492283081361       2.03544554443542      -1.37623398546275
H         0.17053941623191       2.67028037925462      -1.80050305339896
H         1.55875809980683       0.97032999901938      -1.90843590822728
H         0.07469640555055       0.02665039268809      -2.07339728676602
H        -1.36585990329114       1.14541590254977       1.06819667993982
H        -0.22695057297214      -0.20228112914284       1.22233046992415
H         1.20346316382818       3.83249429129182       1.33450612379282
H         0.01748871919243       2.77623580004910       2.10968783442625
H        -1.55966336424376       3.43603719273046       0.54546873367477
H        -0.35612009358388       4.39325490595147      -0.32387278817283
H         1.43628235580585      -1.72863173360288      -1.56506999056768
H         1.17202669086290      -1.24305846492786       0.10984624793398
H        -1.20064111657813      -1.29959436641797      -0.76660379166679
H        -2.25425347925289       0.09046212007288      -1.07778586658669
H         3.27743452588324       0.14738925071893       0.00108094513591
H         3.55752760065145      -0.47216632018824      -1.63344830135765
H        -3.36485852002049      -0.26186038412144       1.12528602478813
H        -2.27872925771163      -1.61788926332450       1.46179894892951
H         3.56216092979664      -2.81259702046742      -0.70205469887807
H         3.29073225557434      -2.14484113443801       0.91904265588770
H        -3.16512960786804      -2.82790129002712      -0.53506714387234
H        -4.25094686564966      -1.47275519197837      -0.87763070980708
H         5.69361598300592      -2.65678132341076       0.55653459153084
H         5.73561291964162      -1.56368039244804      -0.83651108041398
H         5.45425022283104      -0.91865344072537       0.79000092824881
H        -5.44609782410269      -3.28191546445615       0.33022012505757
H        -4.29133031739855      -3.17786092763764       1.66896070252567
H        -5.37879177165174      -1.82163599281264       1.33032227693999
Cl        1.46938277802462      -0.76260606763418       2.50180807981412
