31
C9H19NO2 optimized with ForceField in AMS.
N         0.16811214132020       0.27257054046933      -0.07190872217511
C        -0.43191290323506      -1.03191531785952      -0.46039107049419
C        -0.93727366651148       1.04892373301273       0.56721748820323
C        -1.93674312148862      -0.86137810647821      -0.47351249184137
C        -2.18560925507306       0.17875830703948       0.58593626904800
C         1.28274427545784       0.09285528690068       0.90832256567676
C         0.64484318440105       0.99672797559346      -1.27869703036877
C         2.47789348993226      -0.71891881529151       0.38053259561408
H        -0.19947883418549      -1.82503910064466       0.28524167288228
H        -0.07526954810633      -1.39893527896417      -1.44996259680056
H        -1.17630815959235       1.98635733911700       0.01249294206925
H        -0.70268333649494       1.36901563262639       1.60847604602755
H        -2.46319832292217      -1.81385106759546      -0.24450873273687
H        -2.26651267626295      -0.47917735304250      -1.46466778262463
H        -3.10512896217005       0.76591953667891       0.37298976455663
H        -2.28338622756522      -0.31552404231837       1.57822461230502
H         1.66511154005538       1.08588836148995       1.23814779705536
H         0.90338060208819      -0.41940227453694       1.82282263333161
H         1.38903205797742       0.39994771266480      -1.84822994982691
H        -0.19791090145589       1.20558802002049      -1.97542002999086
H         1.11214895676890       1.96722084494408      -0.99916302765639
H         3.17244379789131      -0.92788888015560       1.22142902472524
H         2.15798473093245      -1.69061477641292      -0.04809661631784
H         3.04367592259974      -0.14325948095743      -0.38052915856215
C         1.24163738962343      -4.72961673021960       1.41868596711633
C         0.52598137632034      -6.04341513004097       1.42271111990767
O        -0.31673319161071      -6.27513993873420       2.27432103703103
O         0.77960619502661      -6.88521800883302       0.57613727327111
H         0.50860476016804      -3.91015581556829       1.27451785056968
H         1.76333314603120      -4.58461023180796       2.38782834726717
H         1.98993169827996      -4.69149689999596       0.59827620453762
