43
C13H27NO2 optimized with DFTB in AMS.
N         1.54408391726563       0.11146760465743      -0.10132307034089
C         1.62502581773325      -1.29151362676320       0.44887646084513
C         2.59941277778713       0.17702216308393      -1.16661323202015
C         0.20713898422898       0.38900632341429      -0.72421485544157
C         2.95801909956545      -1.87389726374046      -0.02386040003965
C         3.72082584127325      -0.70376384822417      -0.64492635041858
C         1.83767660105770       1.10633071428611       0.95941671342331
C        -0.95587911647551       0.31661296358118       0.26161607936960
C        -2.26355040634833       0.12858082164568      -0.51740441349725
C        -3.47099108626272       0.13456114548483       0.42292648987492
C        -4.76928089998853      -0.11240194326078      -0.35162836368820
C        -5.98053677971898      -0.13292333210117       0.57930451687718
H         0.77871708564457      -1.85595347843337       0.03620719313776
H         1.54436487527217      -1.24662190912004       1.53596742026861
H         2.87615821240713       1.21621263892907      -1.34578207880965
H         2.16752114542960      -0.27273308299579      -2.06552919760859
H         0.08318421227938      -0.36819294407785      -1.50147958629399
H         0.26745456445721       1.37809426851679      -1.18675110191591
H         2.76213643549277      -2.62501974573208      -0.79252514022132
H         3.50890039648250      -2.33433118142343       0.79772591312950
H         4.33010043931240      -0.18091310547937       0.09827387435734
H         4.36784831773958      -1.02798583389563      -1.46054133403584
H         1.10903710864849       1.00239238251094       1.76018868147893
H         2.83687031502611       0.92863210163023       1.35150588270683
H         1.77856257626622       2.10768790391085       0.53488200769498
H        -0.82535587292000      -0.53639726255725       0.93142871528041
H        -1.00564192406997       1.22769003235880       0.86783236054381
H        -2.21382420925057      -0.83090927117686      -1.04108579463706
H        -2.36831762608594       0.92547828233009      -1.26149918663082
H        -3.53153747186938       1.09761913611188       0.94351805991975
H        -3.34447502979118      -0.64677888874133       1.18012762053694
H        -4.90066691058919       0.67453487513905      -1.10243781832224
H        -4.70052981557745      -1.06928198221514      -0.87965702137165
H        -6.07720113880609       0.81910454745418       1.10390810603481
H        -6.89121763579258      -0.30688460270449       0.00544904991264
H        -5.87982535442323      -0.92766791682695       1.31991121833806
C        -0.38926699752830      -3.78748998337703      -3.13546565304160
C         0.06999718124627      -2.68731124574527      -2.15440491279320
O        -0.64558880660452      -2.49136274581951      -1.14726309268846
O         1.11761789928229      -2.06636027822586      -2.44661714755068
H        -0.87977202408102      -4.59156204749021      -2.59031868360613
H        -1.10375729207937      -3.34536860206721      -3.82968313946167
H         0.46045453776477      -4.17147298435081      -3.69631940759542
