37
C11H24ClN optimized with ADF in AMS.
N        -0.18368812301915       0.40119454813343      -0.16015557176657
C        -0.94701637034416       1.29423109473858       0.79341496570903
C        -1.02495790318543       0.17577891743732      -1.41110599730217
C         0.14011669736716      -0.90691581525671       0.54060233071696
C         1.08705841857953       1.10673621890262      -0.61675459326801
C        -2.33594910853041       0.77075377284414       1.13283033097520
C        -2.39381332314700      -0.39214222698340      -1.09435245167640
C        -3.16340361888943       0.51032645924232      -0.12719395777656
C         0.95675870378522      -1.90353294624278      -0.25746392134904
C         2.13609862768925       1.32024621359631       0.45814740248033
C         1.22690481521181      -3.13919945026114       0.59761116489668
C         3.31000926429429       2.08917773763301      -0.15302615124009
H        -0.33066775700655       1.41410717052642       1.69519366730675
H        -1.01908753407418       2.26979490108080       0.28585824767867
H        -1.12279574460437       1.17598737141606      -1.86588219208468
H        -0.39843318011175      -0.42191848710965      -2.11409583911458
H         0.65881740459813      -0.62378013107799       1.47058146977724
H        -0.82067264086458      -1.35350631767966       0.82756125979245
H         1.46699835669811       0.51029202827441      -1.48503566899239
H         0.74298398029504       2.07544363771695      -1.01686312304582
H        -2.26274503439526      -0.14696441119964       1.74046525798175
H        -2.82139419589328       1.52579147967312       1.77405110557840
H        -2.93126733563447      -0.48758428944906      -2.05230651577060
H        -2.31179972189184      -1.41636598464098      -0.69035897225122
H        -4.13621523992817       0.06731253237357       0.14226695245486
H        -3.37432404170773       1.47462334660508      -0.62741112828301
H         0.44167340718201      -2.17991382805560      -1.19046323562987
H         1.90170508519807      -1.46116961365143      -0.60676193987442
H         1.73783279641205       1.88441456910311       1.32085643703868
H         2.50450644509656       0.35197886655800       0.83591578983108
H         1.81821095936466      -3.86824856257638       0.02468155953252
H         0.29075277199904      -3.63299660214510       0.90649842681375
H         1.79400567751596      -2.88619035326492       1.50913366219949
H         4.09862510903784       2.25818239270094       0.59406062210957
H         2.98298043311116       3.07051602383582      -0.53226512698497
H         3.73721102756413       1.52656224179245      -0.99716421593737
Cl        1.48891310982774      -0.76179095749001      -3.32162844842566
