26
C6H11F6N2P optimized with DFTB in AMS.
N         0.27961500238333       0.46185509281236       0.03867179057464
N         2.33898097069557       0.02031715998592      -0.40311682587051
C        -1.06700547983331       0.33992473420059       0.59021218271310
C         1.20749593029261      -0.49193492180806       0.07308675532728
C         0.84319549721264       1.61806055343195      -0.42876542890713
C         2.14367805968783       1.33862678231274      -0.70665695643052
C        -1.06475289317343       0.73394324700403       2.06389100565292
C         3.61920647063625      -0.66772367871982      -0.40548086196272
H        -1.72619561430508       0.99094605889214       0.00891948143244
H        -1.38746238125627      -0.69804602802720       0.46303708645928
H         1.06745543128306      -1.50076150275297       0.41904273829390
H         0.28303123076131       2.53221381523021      -0.51521470449017
H         2.93596084912853       1.96221032320832      -1.08130248470699
H        -0.39906053207049       0.08436060598414       2.62962464297860
H        -2.07664932559874       0.64464017844362       2.45695299307635
H        -0.72205978891543       1.76075309359746       2.17911570008879
H         3.46746660550670      -1.71090472699156      -0.67897043982801
H         4.28216748369896      -0.18322870888189      -1.11971622326163
H         4.03949421149161      -0.60182070295105       0.60009225068430
P         2.65533843532110       0.62663323078071       3.21602412238921
F         1.71957195239774       1.57236188478075       2.20108733255245
F         3.91558222082590       0.80431760486417       2.14082275206315
F         3.12900912489144       1.95098255060502       4.02861850133803
F         3.56870741031362      -0.34468899480258       4.14814324001527
F         1.35667699113862       0.42355252744098       4.19734023738383
F         2.15567194998594      -0.72687791643999       2.32877969813414
