46
C12H26F6NP optimized with ForceField in AMS.
N        -0.70774280809466       0.31609640548244      -0.13360781899003
C        -1.28050282568691      -0.45490678875648      -1.28402460948104
C        -1.83123613823085       0.74085730493331       0.76511502430102
C         0.28411785225671      -0.50102495807238       0.65055645008326
C        -0.07183839198914       1.54691282377865      -0.71741072178600
C        -2.13996747918070      -1.66007656097443      -0.86762104915146
C        -2.73775658901772      -0.41778332180955       1.22866099722609
C        -3.27704547630501      -1.21168008630521       0.04283377200993
C         1.56046915723521      -0.92723056500875      -0.11701715962106
C         0.66069027434672       2.46658322298310       0.29026599292438
C         2.49501909736752      -1.73523361042157       0.79304981715059
C         1.22773552850870       3.69626510047124      -0.41412582373336
C         3.75956644665409      -2.15894572135238       0.05089910699814
H        -0.48682465768132      -0.80357540926419      -1.97540725406613
H        -1.93353580764556       0.20802346402215      -1.89985301402134
H        -2.48130261533752       1.48700979119806       0.25173201762209
H        -1.44454949609598       1.23310250049024       1.68308070036658
H        -0.18331416449856      -1.42751286319894       1.03596242904392
H         0.59308604067070       0.04918791064111       1.56609681353470
H        -0.84485765645208       2.16541979182948      -1.23011846868462
H         0.64514162445916       1.26892537212196      -1.52132130330084
H        -1.52859077294432      -2.44304041453959      -0.37447160846112
H        -2.57684058949200      -2.12226960690925      -1.77801761491060
H        -3.59801276297881       0.00196776257516       1.79498230632226
H        -2.19565886550971      -1.09098675515562       1.92517040854399
H        -3.98612321629656      -0.57827635505930      -0.53510864081667
H        -3.83125988067894      -2.10157046784678       0.41156640369008
H         2.11902911951659      -0.04052132126512      -0.47953582227836
H         1.29676700473214      -1.56402223199591      -0.98531902124581
H        -0.03122628517804       2.82136537042792       1.08052078534774
H         1.50821571825193       1.93674444768016       0.77100718284143
H         1.97099906557921      -2.64636298839615       1.15621192617838
H         2.78579056098539      -1.12234697298133       1.67401775260696
H         1.75972493099963       4.33513072005401       0.32225913988501
H         1.94669158351693       3.39162627989877      -1.20424432980112
H         0.40836601611361       4.29043760587648      -0.87189902312347
H         4.32210912991526      -1.26482270745472      -0.29305377959241
H         3.49977517022892      -2.78936238705116      -0.82639346416094
H         4.40980985112569      -2.74779920154493       0.73125228144494
P        -2.26870774514992      -1.90018937538105      -5.44539827448788
F        -3.70276045801736      -1.22912079854371      -4.77875154805861
F        -3.14896159401868      -2.83464426337040      -6.58623491351348
F        -2.18243593190605      -0.75239693487258      -6.72054328041533
F        -0.78970443695132      -2.65987264430751      -5.87667752207558
F        -1.35960136464804      -0.80860424926353      -4.48183021423062
F        -2.41732034557836      -3.12829482826171      -4.25414520101359
