34
C8H18F6NP optimized with DFTB in AMS.
N         0.80799923632915       0.03152671906199       0.05874744060547
C         0.06770219573575       0.68510048518460      -1.07592297827742
C         0.40042615108561      -1.40892934957155       0.16179583423109
C        -1.44386089142054       0.55556055057918      -0.95030268184408
C        -1.10800310858640      -1.59031163354967       0.28527871093254
C         2.28050831426114       0.14840901821072      -0.26406527468758
C        -1.84792707291592      -0.91469355985973      -0.86733188837279
C         0.54238715799215       0.74554159747563       1.33440496338419
C         3.19199703538269      -0.72509380847963       0.58129780729178
H         0.40282643174811       0.19368332257633      -1.99164662637199
H         0.37280686475122       1.73386553887828      -1.09886186483127
H         0.89883365724538      -1.83005980762402       1.03668676248188
H         0.76697256093429      -1.90645527817023      -0.73667543619870
H        -1.88186320015826       1.00939776301053      -1.84298266388138
H        -1.81520215471820       1.10664894713836      -0.08060607072490
H        -1.46764456195056      -1.20485701808117       1.24486097852838
H        -1.30245438574872      -2.66569886029030       0.26704776112536
H         2.39929626641741      -0.12166594795598      -1.31332828194488
H         2.53647467450103       1.20444872863317      -0.14323387180164
H        -2.92607794268572      -0.99585350455525      -0.71174537601449
H        -1.59456854972117      -1.41446529907979      -1.80543095766887
H        -0.51353348363457       0.68336858574101       1.58282024597275
H         1.12730047118248       0.28550321594018       2.12793728085799
H         0.82960484214702       1.78938721021582       1.22074314225967
H         4.21734011049133      -0.41918643759354       0.37539340661306
H         3.00855775874311      -0.61487598636886       1.64961015542651
H         3.09120981495110      -1.77230248361553       0.30167756015990
P         1.81716107069930      -2.02078669215775      -3.53354267419185
F         1.17952233748319      -1.74310739857136      -5.00072171258128
F         0.28871434450588      -1.85292883442347      -2.83973583701495
F         1.57724450621568      -3.62343977281780      -3.66311813032324
F         2.42385719101993      -2.24483864650241      -1.97569517624740
F         3.32170957684769      -2.12969976984569      -4.13286285642400
F         2.02125364506938      -0.36820484883206      -3.30661609866787
