43
C11H21F2N3O4S2 optimized with DFTB in AMS.
N        -0.29172905172421      -1.68427402931211       0.49400606426974
N         1.52791984770386      -1.73343280758951       1.64756045605964
C        -1.56295852959980      -1.23426021444070      -0.06450493789486
C         2.60219541208607      -1.33596644102904       2.55343694399284
C        -1.33993606443517      -0.39460600703993      -1.32645193483467
C         3.58061618646802      -0.38698288664713       1.85235781496809
C         0.39390562101567      -1.06141376788777       1.45382142677154
C         0.43529247160685      -2.75163893694730       0.04451965520059
C         1.58239606665376      -2.78257930419511       0.77371648675181
C        -0.64451184942647       0.93619048017337      -1.02930696363056
C         2.97954205312268       0.99003148594802       1.56767106276179
C        -0.33447765677987       1.69124675164492      -2.31988730761361
C         3.95465381646603       1.84465969575844       0.76107837690164
H        -2.15168772513703      -2.12436405138585      -0.30147478698732
H        -2.08249375400400      -0.65714009247540       0.70610721747519
H         2.14838642199880      -0.86264422279104       3.42960626038102
H         3.11696293217097      -2.24756527375755       2.86640346523451
H        -2.32127631850841      -0.21097204526109      -1.77355828469435
H        -0.74547467185519      -0.97279172492201      -2.03737102849093
H         3.89764957805588      -0.84473414035865       0.91449897245143
H         4.45666834276634      -0.28457425927622       2.49865636487098
H         0.06439552654281      -0.20025672779970       2.00756375966528
H         0.09380480728898      -3.37752045224666      -0.76091386384468
H         2.43257263258763      -3.43935293053660       0.72180539993943
H        -1.28229130723365       1.54701856442235      -0.37995806953471
H         0.29205998671533       0.74343637246518      -0.49839530295714
H         2.05722226962270       0.87029684499226       0.99078737921490
H         2.72632587596853       1.48915339158454       2.51064070957317
H        -1.24919885568616       1.88961033893879      -2.88007246912246
H         0.34013507859543       1.10630376572827      -2.94459844468981
H         0.14528392230489       2.64117049655042      -2.08495590397865
H         4.19391369689409       1.34685517613035      -0.17831797929402
H         4.87836447597059       2.00361960798651       1.31865012309712
H         3.50678144096387       2.81381780901483       0.54095813260645
N         3.56432904886006      -2.25164149677145      -2.49642459598477
S         2.34521474238184      -1.27397875748454      -2.27087781990971
S         4.84283840787489      -2.02987572666838      -1.57762998716399
F         2.61029407112914      -0.07404060998310      -3.32521948964847
F         4.33629870255887      -2.72730324870837      -0.16033570382306
O         1.16222380244705      -1.91205864717673      -2.77170907492381
O         2.23844665982709      -0.59641118700942      -1.00478869826095
O         5.15962181356331      -0.69499436896292      -1.18216807940980
O         5.87271123057801      -2.89989036147399      -2.02368464649484
