31
C9H20ClN optimized with ADF in AMS.
C         2.74649099185935       0.32752759171434       1.50066832684427
C         1.75426555188885       1.29781903077822       0.84862560492751
H         1.38739481374148      -0.76021370172511      -0.86156649299026
H         0.23531466531631      -1.62233499661931       0.28210784146789
H         3.01212922159996      -1.69673605416949       0.63276207150496
H         1.90930486501283      -1.64905737308153       2.01491920559350
H         2.78302495485278       0.46341383138048       2.59173205807715
H         3.75923709777182       0.52215234975572       1.11833886705691
H         1.48652284370717       2.17010879173631       1.46172814138892
H         2.11192071073257       1.64276657305891      -0.13291332243514
H        -1.01855840595795      -0.47195074086246       1.74019279413922
C        -0.29281831859302       0.36374947913177       1.85964605394115
H         0.39473172491096       0.12106078650065       2.67863204874593
H        -0.77246950462308       1.33375434041439       2.04545330879895
C        -0.32548087812932       1.13020883595384      -0.50308962992265
H        -0.57836334883235       2.12713182558200      -0.10918125970439
H         0.36444506216509       1.26702366578477      -1.35344466978796
H        -1.90487587001566      -0.32009799508387      -0.10391381220109
H        -2.47692416627961      -1.98167137553625      -3.35221947563179
C        -1.36820736328964      -0.52148843901615      -2.16783478006995
H        -1.12433581647651       0.12115100522868      -3.03599482594845
H        -0.51237346684398      -1.19841547654734      -2.01087800156120
C        -2.60512957742468      -1.37124017335911      -2.44551402433886
H        -3.49870783894810      -0.73978173413730      -2.58274278890190
N         0.50713717762048       0.48447168799170       0.58939130008077
C         1.05909336498829      -0.87303935207492       0.18205876171999
C         2.23702452660242      -1.09164785681591       1.12421340148819
H        -2.77669627059310      -2.04300347861031      -1.58801094915838
C        -1.56528311366711       0.34651958464625      -0.92182761437288
H        -2.37691169422808       1.07128882644240      -1.10947236501454
Cl       -1.66271242956818      -2.51078797606137       1.01079739436412
