24
C6H11BF4N2 optimized with DFTB in AMS.
N        -0.85077973992995       0.84416356539355      -0.39014507869489
N         1.16779732730362       0.46201206636772       0.24616558678989
C        -2.28145793707281       1.13035081097788      -0.28832270143843
C        -0.10799167070588       0.39866063625587       0.61785408263628
C        -0.03249848833749       1.21199611731320      -1.42251429877218
C         1.24389044815126       0.96855823194959      -1.02264310836915
C        -3.05425484380286      -0.08910638427518       0.19309267062592
C         2.28257972989865       0.16122639536058       1.12928656882701
H        -2.38126470920581       1.95281006277801       0.42837721514826
H        -2.62511448161951       1.45336302506812      -1.27403997007300
H        -0.46904494518474       0.07099971176532       1.57757728004763
H        -0.41660160742726       1.61712629597691      -2.34240743141351
H         2.18234618730790       1.11642448521498      -1.52765820408278
H        -2.84442295207037      -0.95510538728681      -0.43489327585588
H        -4.11975741798752       0.13163967967436       0.15115978164332
H        -2.78788632544343      -0.31616634655903       1.22427023355760
H         2.37439066207769      -0.91880443753839       1.24977999225087
H         3.19659345871820       0.56519605053971       0.69835936195778
H         2.07835402708829       0.62735444428894       2.09544104438450
B        -0.77393611587013       2.11284798980782       2.83460883696757
F        -0.59937701190139       2.75561063887241       1.58657337870553
F        -1.83353636420012       1.17777456860528       2.66287728808619
F        -1.03488074397749       2.99673971721133       3.83687199288275
F         0.40659674759116       1.36041755763785       3.09055602568871
