29
C9H13F3N2O2 optimized with ForceField in AMS.
N         1.10720131919937       0.35599501347111      -0.36455505786799
N        -1.11514811293515       0.36864954351515      -0.37652563027616
C        -0.00493919446090      -0.23998375614062      -0.83640317602724
C         2.48822903844111      -0.03976514238174      -0.62380081011246
C        -2.49811756852823      -0.01767111831185      -0.64051618636180
C         0.68797513806588       1.37965433167886       0.40684355867340
C        -0.69237122958818       1.38672865629770       0.40041503782008
C         3.09629794781434      -0.68900758617352       0.61288287699446
C        -3.10160245391622      -0.68964605575350       0.58694853777702
H        -0.00641045152875      -1.11030891243376      -1.48204309982107
H         2.52028028291593      -0.77145468077867      -1.45884717392884
H         3.08395882173669       0.85190287243505      -0.91636838900453
H        -3.09241037723053       0.88199590872575      -0.90980708330287
H        -2.53778665483245      -0.72716853251597      -1.49567676737757
H         1.33667329654461       2.06824433761875       0.93343937754586
H        -1.33880641830814       2.08065920746340       0.92276743099414
H         3.09417753254058       0.02377771785629       1.46388553757258
H         4.14309257779405      -0.99046182294421       0.39910322965697
H         2.51289519599894      -1.59273613313523       0.89019111351839
H        -2.51344282947631      -1.59446322145176       0.85049520595541
H        -4.14767622617057      -0.99220508695862       0.37208271971851
H        -3.09991712911103       0.01029074554114       1.44885815981177
C         3.72941489077047      -0.83010775629180      -4.87178111482032
O         4.39199305339589      -1.85400338612152      -4.81532617695519
O         3.47530535307601      -0.21945131390228      -3.84683746009068
C         3.22703960141513      -0.31801613165103      -6.18792380159287
F         1.84428122492750      -0.32653653756381      -6.18771538125537
F         3.68421337706830      -1.11188821085449      -7.22560048492106
F         3.67424285178167       0.97643944616118      -6.37992274242255
