49
C15H14F18NP optimized with ADF in AMS.
N         0.48736144536985      -0.79427595943170      -1.53089047866289
C        -1.65205031841013      -0.08642763083862      -0.48609823716954
C        -0.15636380762531      -0.28848699150583      -0.29115276440658
C        -2.34742973631573       0.33229555385585       0.80762449776797
C        -3.86160080830172       0.40656777339862       0.62112865053689
C         0.97457690035886       0.08175792092836      -2.43834478364211
C         0.51143425949362      -2.12534865908340      -1.77038877228919
C         1.53350196212066      -0.36814121212300      -3.61677534537875
C         1.06111211825884      -2.61964805912731      -2.93524661483236
C         1.58105948950097      -1.73510867465368      -3.87413188868528
H        -2.09479754169618      -1.02361931820297      -0.85635722260752
H        -1.82142142671825       0.66738276791890      -1.27276683655937
H         0.05123262848286      -1.02608403904538       0.49865164452881
H         0.35619235319108       0.64639911648364      -0.01911601847111
H        -2.10915351408081      -0.39374569646167       1.60619340939741
H        -1.95895798942509       1.31055761505220       1.14388538482903
H        -4.35984854838458       0.71218741884896       1.55240288358381
H        -4.12805069176105       1.13170652403906      -0.16337344502969
H        -4.26696165662021      -0.57208625823029       0.32057809532963
H         0.88243311714594       1.13647175468496      -2.18694127382045
H         0.05898089432169      -2.75959441582536      -1.01087031180379
H         1.89454175124096       0.35805267750055      -4.34453445002168
H         1.03739704242421      -3.69191101250117      -3.12416708028079
H         1.97696000379474      -2.11028287293350      -4.81830556901118
P        -2.19092436354332      -2.96485586922942      -5.72868016689899
F        -2.45291487764234      -4.59544647125530      -5.56129581422800
F        -3.23377706047798      -2.81146399934209      -7.00032550848340
F        -1.12438114419562      -3.02660424518676      -4.41853135685033
C        -3.74208113423231      -2.81620885091087      -4.50930886270280
C        -0.71924134129684      -3.49182359691913      -7.04165850847071
C        -1.68197394541366      -0.99210250515049      -5.86967461901720
C        -3.62039859379070      -3.33823486919015      -3.04221881477282
C        -0.41079517106843      -2.76446827098456      -8.40151636885929
C        -2.02912887153417       0.15469318683638      -4.86370057828951
F        -4.78325367034397      -3.54576995651539      -5.03524814173280
F        -4.20764151656634      -1.51972270788875      -4.39415712721629
F        -1.01722074818683      -4.76555850616060      -7.46635907539721
F         0.51212307124963      -3.57725009867951      -6.39336550014899
F        -2.04916297954343      -0.48980742711944      -7.09421850722139
F        -0.28697091582277      -0.99156621081426      -5.83806196353468
F        -4.81913940843984      -3.19566216373289      -2.40774243405699
F        -2.70971597059914      -2.62885897936098      -2.30543891123398
F        -3.27192831914200      -4.63851376881054      -2.98045956296883
F         0.40834456829349      -3.56935560871579      -9.14396572610085
F        -1.53385454195086      -2.54964748782068      -9.11776602887431
F         0.24415393093940      -1.58666301328603      -8.25703786417087
F        -3.23832831045516       0.70164032244175      -5.07616883423281
F        -1.11591116159916       1.17560784204614      -4.98743337973273
F        -1.94742051020284      -0.26976099709787      -3.57177705480548
