38
C12H19F3N2O2 optimized with DFTB in AMS.
N         1.71617715769264      -1.29879369047468      -0.10208147735516
N         2.47849709881862       0.52531981643383      -0.94813664046806
C        -0.41958840667665      -2.22474230892783       0.66907123682459
C        -1.25613580521739      -1.31316551064090      -0.23110943971405
C         0.94931029563468      -2.53083055195505       0.04957627242789
C        -2.56996695661141      -0.89570987802811       0.43421519646593
C        -3.33614135840451       0.07121407290799      -0.47542184173380
C         1.81981625977461      -0.59296096912465      -1.22760848095202
C         2.29766246415350      -0.59772184229360       0.92221550171342
C        -4.58854877044703       0.61156778200283       0.21052937770879
C         2.77841624576991       0.55474052166129       0.38543926372998
C         2.65927083037988       1.61516223815342      -1.89338336215795
H        -0.27029614848722      -1.75462960591234       1.64632621333750
H        -0.93253045657905      -3.17805301703285       0.82712233718203
H        -1.46627782360364      -1.82382717460247      -1.17585770229304
H        -0.68335090685822      -0.41125360634509      -0.46138267625635
H         0.83664076343770      -2.97647902376402      -0.94196152737495
H         1.52099576496769      -3.21032177061400       0.68766199494216
H        -3.18234547956573      -1.78023908816730       0.64237003540747
H        -2.35160772913763      -0.40710945168436       1.39108816710601
H        -2.67925899843651       0.90238367489015      -0.75165943625172
H        -3.61938804128991      -0.44719162746489      -1.39616524069835
H         1.46644568289670      -0.86841383961872      -2.21127002443192
H         2.32572824550211      -0.97303829254589       1.93014108881300
H         3.30272866967401       1.37766501178399       0.83880863901878
H        -4.32501935265941       1.15916983904701       1.11720926338447
H        -5.11709914893083       1.28798704248780      -0.46138328879126
H        -5.26132362158459      -0.20406273449674       0.48178671087810
H         3.61061188140871       2.10831222209548      -1.70205901042041
H         2.61984450948919       1.20435129863697      -2.90107929852689
H         1.82794383654315       2.30945473889433      -1.76308000455981
C        -0.20339149111708       0.61688213698231      -3.12701684319773
O        -0.20304015984455       1.10849127874511      -1.99512759409850
O         0.73041751921160       0.17213877794643      -3.79762370719496
C        -1.65304785055544       0.44229475634983      -3.78457782178457
F        -1.63703110062979       0.43213644966208      -5.12157040332014
F        -2.52083313912994       1.39113501952046      -3.40213030429388
F        -2.17988367488815      -0.74324292020785      -3.38879316176460
