42
C12H16F6N2O4S2 optimized with ADF in AMS.
N         3.01129809240812      -1.15048219591744       1.22690650234986
C         0.74272901486127      -0.28751470281722       0.69222835913909
C        -0.10855755862110       0.37095052494712      -0.39265597107019
C         2.15396369833459      -0.54545408724593       0.17985127351408
C        -1.54153773863949       0.65405234676233       0.05530186740624
C        -2.36515957908994       1.32057804758521      -1.04414391950452
C         3.28033366505793      -2.47064993833699       1.20255939421377
C         3.52631871409544      -0.35349437703424       2.19011295308177
C         4.07655778502522      -3.04239144315049       2.17699833402850
C         4.34306137169981      -0.87556551337217       3.16957591505880
C         4.62125978582911      -2.24028264545114       3.17007409254230
H         0.28503741018251      -1.24034706462578       1.01381088581683
H         0.78171088845571       0.36601545813503       1.58226520310283
H        -0.12837099881783      -0.27744340973103      -1.28761692133411
H         0.36968256829682       1.31747041990241      -0.70468019237266
H         2.17076228275872      -1.23099056907467      -0.67721986073116
H         2.65774916777759       0.37489723237760      -0.14287917130290
H        -1.52288955064074       1.30021051833472       0.95133334117651
H        -2.02261762702186      -0.29245293629628       0.36114986557844
H        -1.91642850261176       2.28082056191052      -1.34375289395961
H        -3.39483531749975       1.51764283070780      -0.71064912587990
H        -2.41562017976452       0.68153435533273      -1.93996475917493
H         2.87878532261073      -3.02956831320876       0.36108458483498
H         3.28805632780263       0.70364566331007       2.11561264840969
H         4.30885851561801      -4.10389535571404       2.10793987044414
H         4.78338671303817      -0.20221207726339       3.90357249998958
H         5.28718356458147      -2.66710074058909       3.92072167873573
N         6.61882507447888      -0.53639279883978       0.34265993920679
S         7.05951865541944       0.97594384246556      -0.01695609060202
S         5.91326405256308      -1.49363626535280      -0.74274339275530
C         5.71489500914229       2.04583109840460       0.77304122037822
C         7.12944248994600      -1.72907103576618      -2.20753619241707
O         8.21838597020151       1.32483964995183       0.78720861482778
O         6.98116874777180       1.32234944996638      -1.43011611185704
O         4.68832486909631      -0.97021925940174      -1.36133884307216
O         5.84275547150667      -2.82529864201080      -0.13247099295518
F         5.99156113019010       3.35125188798378       0.57456485325737
F         5.62289111387175       1.83714759757732       2.12085192890667
F         4.47574840801168       1.80113697040443       0.24134253565326
F         7.04398147685297      -3.01957600649498      -2.61946816323317
F         8.40020123385180      -1.48249761466300      -1.82868702864563
F         6.80663033266885      -0.93348548200146      -3.24186260998572
