58
C16H22F18NP optimized with DFTB in AMS.
N         2.28037716728126       0.21656000086159      -0.04950323132914
C         0.88712798951630       0.21068339156353       0.51094123955567
C         2.90625220397535      -1.13336911415579       0.16540383734833
C         2.14823750852830       0.47557606665178      -1.53069903536499
C         0.82875795036766      -0.21499881018839       1.97456919548564
C         2.88664147285694      -1.57482723264996       1.62086306773683
C         1.46307060034094      -1.59154878900029       2.16760366868028
C         3.08131550514348       1.29822094171792       0.58156998328725
C         3.45624294205489       0.63949848937792      -2.31397197933869
C         3.86527235216293       2.10264036139726      -2.53222927009944
C         4.92992953611302       2.20427471502129      -3.62296067563168
H         0.30241697474510      -0.48373682139418      -0.09909802329903
H         0.48193018410527       1.21783538865567       0.38597357398827
H         3.93097288391853      -1.08028684514351      -0.19422262030705
H         2.34672528685426      -1.84154076489414      -0.45233703545025
H         1.53262411604404       1.37433801129305      -1.63399994990045
H         1.58316769438302      -0.37027760534708      -1.93052602674509
H        -0.22547362589370      -0.24107672587466       2.26272731076998
H         1.32793244022150       0.52170940665348       2.60901341438308
H         3.51819837868532      -0.92425737228233       2.22668031020819
H         3.31976899184859      -2.57703070923930       1.65663459557909
H         1.47512423337719      -1.84334541249522       3.23013536569197
H         0.86874474148994      -2.34711481145122       1.64318527956269
H         3.07436487573998       1.17645776378054       1.65992616068565
H         4.10485234516891       1.23729129471578       0.22443535305553
H         2.64256419513400       2.25814029474995       0.31591328052945
H         3.28940674248779       0.17724903545794      -3.29223712293043
H         4.27465378418448       0.09650319917037      -1.84100702433646
H         4.26146195150810       2.52643730656061      -1.60547825499260
H         2.98726274277010       2.69035843967699      -2.82324415997978
H         4.53142777647212       1.86319625185733      -4.57934454493331
H         5.79325302212448       1.59233716693846      -3.36709797128797
H         5.25359139510161       3.23931793639958      -3.72780139113424
P         7.03545324943695      -0.60260265007050       0.93009296166937
F         5.92092317416794      -1.59507002279638       1.72605348813093
F         8.24062109048201      -1.10343887960214       1.95034792873115
F         5.77381235340788      -0.03974320651810      -0.13011949797111
C         7.27622129346979      -2.16518745008929      -0.25548037677289
C         6.42427812751450       0.79836797589170       2.18336216551911
C         8.35952746197909       0.57619385355455       0.01459695553255
C         6.02531932822344      -2.82809067968320      -0.90620500949860
C         7.10833556273603       0.93284744281688       3.56858385914074
C         7.94604392195781       1.33446976266805      -1.27400182417171
F         7.87948031845151      -3.13870534534424       0.44319205641614
F         8.06615697130588      -1.87131376696751      -1.30498292777945
F         5.11370213765792       0.57240571695208       2.47703876962574
F         6.43970850246931       2.00551373383130       1.58971811402082
F         9.45927931230032      -0.13607221022290      -0.28014548765407
F         8.74599111379230       1.51470128887362       0.90173258765001
F         6.39045391605058      -3.91154598417127      -1.58607823592763
F         5.42407699105905      -1.99956922486698      -1.77220409421341
F         5.09671561712227      -3.20682334958873      -0.02389153806377
F         6.53767045032684       1.92947425924082       4.25569292632898
F         6.94149353190195      -0.18671548778781       4.26770953418152
F         8.40453867045564       1.18926724980491       3.48052830303718
F         8.97257591801159       2.00691688278489      -1.78826844809974
F         6.96999698596750       2.21170789214778      -1.02510744729079
F         7.49873102774018       0.49499290755755      -2.20982823592826
