40
C10H22F6NP optimized with DFTB in AMS.
N        -0.86403989419688       0.60226400319031      -0.15674993254875
C        -1.00887600506624      -0.44428010899662      -1.21811850435429
C        -2.14299599114132       0.48460556458783       0.61253690477745
C         0.31300997198993       0.33643513169686       0.73301056349288
C        -2.46342838324778      -0.34716486564491      -1.65841571868540
C        -3.21803997082997       0.21409342655497      -0.44135183959813
C        -0.76856723950621       1.96401606004288      -0.75086381124518
C         1.65540423826485       0.41986522343368       0.00753475520454
C         2.77466119343355      -0.11482933589071       0.90621502988804
C         4.12672936065102       0.00170860573046       0.19380704097129
C         5.25366263365600      -0.58764749450990       1.03874857435868
H        -0.79498478397246      -1.41081527531326      -0.75620869646564
H        -0.30595635826527      -0.25255457226793      -2.02413471727631
H        -2.30828522328322       1.39679052013567       1.18655871700791
H        -2.04340623708832      -0.36060072649383       1.29761227524271
H         0.17183495255964      -0.66401828052243       1.15257156924250
H         0.26727235056857       1.06497657723911       1.54780883038001
H        -2.83794316740238      -1.32940206248645      -1.94913948731644
H        -2.55322258727628       0.32068957350097      -2.51740605004781
H        -3.74766881192269       1.13270033065988      -0.70041332363004
H        -3.94724832468918      -0.49977607718451      -0.05446748120953
H         0.11202588620320       2.01826614807103      -1.38354381405005
H        -1.65112973906906       2.15259793512529      -1.35546487896269
H        -0.70217360189258       2.69207325619508       0.05577799354298
H         1.62458959909551      -0.16604142507966      -0.91275664659350
H         1.87456860484575       1.45460723931016      -0.26331438449039
H         2.57636058635250      -1.16402136760439       1.15280149405971
H         2.79937789920759       0.45092329954471       1.84429659283362
H         4.33546414214127       1.05603000275915      -0.01288333785079
H         4.07613390214433      -0.52306179744324      -0.76512858154528
H         5.32945770955896      -0.06762354842459       1.99499541036565
H         6.20280266579074      -0.48716403968605       0.51268403433823
H         5.07422188518823      -1.64619675832185       1.23237336819531
P         1.24231965702898       1.16383100686193      -4.00005770234901
F        -0.36454078135758       1.29107341769059      -3.48144865506563
F         1.09957681757101       2.59581500267886      -4.75677704174827
F         1.69355277326991       1.95475459391104      -2.58868062829851
F         2.80318881447857       1.02169496042315      -4.42494530293728
F         1.33922803304880      -0.27906100610400      -3.14685464277245
F         0.74154323235853       0.35028738513071      -5.31667849046016
