47
C13H25F6N2P optimized with ADF in AMS.
N         0.56315643624706       2.59671650802521       0.63420733070282
N        -1.58536368760705       2.47671503895373       0.39268627807040
C         1.99379347558617       2.56221692224955       0.31006471976771
C        -2.89661016732007       2.29890974752433      -0.24762969147579
C         2.59286418024574       1.19281504788008       0.62217594969847
C        -3.00693943510908       0.92516279399395      -0.90267126807917
C         1.94915566926319       0.05064556207656      -0.16060757322020
C        -2.78062014986363      -0.23613811956041       0.06284540729846
C        -0.41681018411551       2.41944380403528      -0.25722249301106
C         0.01109597240699       2.77802888775145       1.88335602245301
C        -1.34437770516647       2.70419928308536       1.73099576419112
C         2.58140646358158      -1.30788895819127       0.13742874487937
C        -2.86007336692500      -1.60037779002630      -0.62035754391316
C         1.90531005946703      -2.44551424228671      -0.62410582557995
C        -2.58481323917671      -2.75616934231518       0.33797730192960
H         2.47402199262100       3.36664804407067       0.88553504693236
H         2.07298411802766       2.82277110805412      -0.75530882717666
H        -3.01214519794907       3.11372154757067      -0.97825779074790
H        -3.64612317453591       2.41737775592923       0.54798366340015
H         2.51583006936882       0.99070640535360       1.70645719464159
H         3.67048016953126       1.24811904890187       0.38904457710954
H        -4.01167684220583       0.85630865862150      -1.35513203384788
H        -2.29145620223927       0.86598765749164      -1.74195938278464
H         2.01837583458527       0.26195738383820      -1.24410927286142
H         0.87184546881700      -0.00573817707555       0.08139881235848
H        -3.52463709102154      -0.19049417284836       0.88150572078343
H        -1.78808511804122      -0.13614589793858       0.54015143821647
H        -0.27123547296276       2.34511486591454      -1.33071289347350
H         0.62011047516292       2.96745336484388       2.75814749784690
H        -2.14977502389952       2.81526887827366       2.44585320671755
H         2.52560788598297      -1.50217178979917       1.22410995642607
H         3.65589534074131      -1.27364107011977      -0.11748816975043
H        -3.85917358059189      -1.72228879668881      -1.07611772839775
H        -2.13372815995562      -1.62748856806275      -1.45293381239143
H         1.97985523236163      -2.29010457520959      -1.71236458229368
H         0.83520814825025      -2.50892061569356      -0.36799446773564
H         2.36539021343155      -3.41712545146232      -0.38960314573414
H        -3.31022621212073      -2.76540987942141       1.16787812561338
H        -1.57702723227208      -2.67154246784343       0.77640349953173
H        -2.64751211054008      -3.72744840554039      -0.17530812057740
P         0.15370114053360       4.98487628328073      -2.58590148069180
F         0.53928878363881       4.99796149323277      -0.95932947530924
F         0.78160426656397       3.40207091962501      -2.66660975046223
F        -1.33309266552930       4.30535688688695      -2.17972888049908
F        -0.24376093323876       4.88845653447834      -4.16814673910948
F        -0.48336864951664       6.48347520196345      -2.45728797367874
F         1.63859620968795       5.57280615727720      -2.94324239246625
