27
C7H13BF4N2 optimized with DFTB in AMS.
N         0.23996480484595      -0.87988757513506      -0.32868150501979
N        -1.69448066513688       0.04854802954345      -0.46986514787334
C         1.63432281770752      -1.17473597354179      -0.64506147515526
C         2.59408470001209      -0.41766484106101       0.27518892526062
C        -0.42076210926849       0.15673045187105      -0.83291312138664
C        -0.62922030897045      -1.66874417801301       0.37481350530949
C        -1.85320537373591      -1.08308129979876       0.28659831431161
C         2.50299185315354       1.09612598761694       0.09427703638780
C        -2.74131076721757       0.95267191884368      -0.91785723524284
H         1.78496346233601      -0.88389329694774      -1.68930100475008
H         1.77630128104835      -2.25287068740902      -0.54146387674598
H         2.39190410154533      -0.68596391851527       1.31733072840963
H         3.60554377413684      -0.75346793198026       0.02959537047618
H         0.00083274227835       0.93497625084101      -1.44591604732362
H        -0.31590065169068      -2.57399565348541       0.86478135532176
H        -2.80748863181603      -1.37809669245642       0.68643179268318
H         1.54702967849125       1.47072353249182       0.46256509938119
H         2.59720052073773       1.35796178822564      -0.95986763040480
H         3.30164887744646       1.58305175481871       0.65325709674107
H        -2.44600592085381       1.34979718268666      -1.89046226979058
H        -3.67550422987678       0.40046644834292      -1.00368842550992
H        -2.85739846058185       1.76649936045898      -0.20044921813006
B         0.24220763708320       0.54452816975439      -3.63797210181360
F        -0.87899986587641       1.34732161764136      -3.29667144268112
F         1.35352003290439       1.03627955404410      -2.89663958337199
F         0.48048077309403       0.54158775333613      -4.97628853804327
F        -0.01445447689621      -0.75766336287309      -3.13495360993969
