38
C12H19F3N2O2 optimized with ADF in AMS.
N         1.33250740657569      -1.64554535965373      -0.84658513199494
N        -0.16468064835015      -1.02636286381864       0.58225063673478
C         2.64515237019268      -1.78091149780708      -1.49761409500572
C         2.89587222844319      -0.64287840218321      -2.48424465247498
C        -0.78275816976685      -0.38436756998034       1.74885078237632
C         1.15782037932326      -1.08486122965457       0.36206088186767
C         2.91569405953533       0.73356986195269      -1.82116138269144
C         0.10496964116067      -1.93348088451227      -1.40937747649487
C        -0.84225061249456      -1.54354522532754      -0.50673537481979
C        -1.46458173285737       0.92425334299643       1.35820784564930
C         3.31811832722307       1.83739815716969      -2.79476204985328
C        -0.50625995608250       1.92877541815193       0.72567189962417
H         3.39190535706033      -1.75765093966888      -0.68831152756252
H         2.67014124590633      -2.76511528666377      -1.99041633957630
H         2.14473952395012      -0.67102368413075      -3.29649311807050
H         3.87589230645828      -0.84232026035368      -2.95386005731543
H         0.02691154197879      -0.20984364822607       2.47010706669767
H        -1.49433506246048      -1.09885259048822       2.19045907498963
H         2.03410806830812      -0.72591926859145       0.99699371714991
H         1.91560185698529       0.95983601000804      -1.41147172486170
H         3.60061324451380       0.70702044312373      -0.95544054172279
H         0.00745636802639      -2.40293078399277      -2.38082435729632
H        -1.92322766227992      -1.60287193709810      -0.54078271655803
H        -2.30532715868300       0.71165542713781       0.67368746949125
H        -1.90970216131605       1.34136559167057       2.27767896773398
H         2.61804320568902       1.90036282231981      -3.64429996609340
H         4.32526570109810       1.65596163222696      -3.20241776287204
H         3.33300075369527       2.81552162405968      -2.29206621989458
H        -0.09060365553578       1.54428613288187      -0.21860833504420
H         0.33703105886873       2.15001567282523       1.39707627809174
H        -1.02720687491936       2.87073643137845       0.49978149005916
C         4.02912083976498      -0.04732844227990       2.47331504378603
O         3.57068123857561      -0.39087679841259       1.33236359544757
O         5.18311139953659       0.12775890381182       2.86221572863400
C         2.88885565230911       0.19000964307313       3.53065179717521
F         2.09814997902313      -0.93672923755700       3.69433202967359
F         2.01586581397925       1.18892640601439       3.12192733818994
F         3.32999439596490       0.54014792419827       4.75833679313094
