40
C12H25NO2 optimized with ADF in AMS.
N        -0.41328909257389      -0.05320944564732      -0.04674208035078
C        -1.56734666293663       0.30008776989559      -0.99197021827193
C        -0.57994626339447      -1.47986151168543       0.43365541948014
C         0.85686378478348       0.05868746383631      -0.85999889116829
C        -2.92770354834468       0.04251515353464      -0.38518466189566
C        -1.93860164367580      -1.74445938687263       1.06599359013057
C        -0.37398017244653       0.88770159911755       1.15099926668083
C        -3.07823493006693      -1.39149071130783       0.11026468939898
C         2.15618016910539      -0.17850120395136      -0.10778344535031
C        -0.06137675210008       2.32867333295669       0.81036011307389
C         3.34052872067710      -0.02165081127424      -1.06198441279376
H        -1.40845042235934      -0.32183173869019      -1.88852786362334
H        -1.50618711135133       1.36469034070917      -1.27286863926539
H         0.23777771548353      -1.69035452311494       1.13719943991229
H        -0.45189925317936      -2.11052465896199      -0.46197924355464
H         0.83714354950627       1.06111635757223      -1.31156443035331
H         0.74829213311763      -0.66997594304511      -1.67867353006761
H        -3.63587840875708       0.29282952660838      -1.19125742874603
H        -3.12201409362897       0.78236060023066       0.40994462006902
H        -2.03441793246552      -1.18070108871186       2.00949687657358
H        -1.96254579036394      -2.81332150716085       1.33834014638510
H        -1.36705662414370       0.82473673435899       1.61207085668542
H         0.35201302590267       0.44407177865877       1.85056898917873
H        -4.04952884987173      -1.53857870143910       0.60921194383885
H        -3.05168568468753      -2.08365309651396      -0.75321834035802
H         2.25988723390169       0.54034249165919       0.72047201606244
H         2.17487312806361      -1.19022805090405       0.32965919751411
H        -0.11877273167498       2.90452905343966       1.74743421022114
H         0.95393893503277       2.46086004844453       0.40872978040971
H        -0.82445090211975       2.74942260738191       0.12128787666047
H         4.28985137982138      -0.20025605550461      -0.53782166443238
H         3.27496505220621      -0.73594858087611      -1.89776475096091
H         3.37308779822622       0.99356170220038      -1.48772274108521
C        -4.00553227092244       4.29908418419495      -2.26302691001006
C        -3.08320612531055       3.12444132123111      -1.88908672238437
O        -3.01390522734387       2.15267921327887      -2.69427392352009
O        -2.47050933242086       3.23889402454082      -0.77414476774771
H        -4.43872932975315       4.16397632959070      -3.26342477575391
H        -4.81690327057362       4.38309136521506      -1.52277429898817
H        -3.44192283476119       5.24364382010540      -2.22429151849338
