34
C10H21NO2 optimized with ADF in AMS.
N        -0.16473085255589       0.42145430311734      -0.24507281277751
C        -1.44909388742149      -0.03565376843945      -0.89932225366277
C        -0.18509481498216      -0.30370373556693       1.08965795398999
C        -2.47858274392057      -0.07918737750182       0.23502908505084
C        -1.63923717018390      -0.19861056601646       1.53786593548072
C         1.02960503661350       0.02834345600168      -1.08024715679085
C        -0.19241244651037       1.90808939310702      -0.02430967817146
C         2.37190809023240       0.35774166770862      -0.45305078718239
C         3.49946689717882      -0.20283233052872      -1.31631074895207
H        -1.25382581745401      -1.04057194211273      -1.30352294766388
H        -1.69383519079718       0.64848271231969      -1.72409765983570
H         0.57222683665058       0.17058079468648       1.77003668556078
H         0.09055336508678      -1.34720059717674       0.86295292026015
H        -3.15388485288021      -0.93532614945629       0.09352710475448
H        -3.10046416909212       0.82753749258997       0.24218980572051
H        -1.77827346213790       0.68491345471293       2.17892036926873
H        -1.91838153032047      -1.07733054488710       2.13571637113502
H         0.90395082899470       0.53336694231860      -2.05342882798925
H         0.93121450877020      -1.05814248740702      -1.24461106408535
H        -0.17275949585017       2.39278790631364      -1.01064008676671
H        -1.12778932917439       2.15932905725533       0.49016605703660
H         0.68668115479221       2.21595346844200       0.60436533442260
H         2.48256577095333       1.44511323704709      -0.32169562397291
H         2.42294334802856      -0.05574650878029       0.56709377329781
H         4.47427323740544       0.03721231338119      -0.86783692822055
H         3.43355493343954      -1.29979547222058      -1.40628217003877
H         3.48525116690658       0.22349034354451      -2.33288363872451
C         3.22215958284325       2.66085810310894       3.67667221960998
C         2.31531031512227       2.08862690106223       2.57968228436647
O         1.87711463444561       0.91018343439852       2.77685507784546
O         2.07793525261950       2.83345387846087       1.57876150092882
H         2.65976693515664       2.71306701535116       4.62167085565051
H         4.07309362911320       1.98422905892548       3.84871274322025
H         3.58928450812774       3.66172439534084       3.41331264013498
