44
C12H24F3NO3S optimized with ADF in AMS.
N         2.28073778804206       0.44404121930889      -0.00144196759123
C         2.62131223287886      -0.91401573406626       0.55745857637131
C         3.42118082771556       0.68590746421665      -0.97384682900837
C         0.95906281354717       0.47531222800536      -0.74749406193101
C         4.13168608088069      -0.86230296980084       0.79055891798635
C         4.66211470539918       0.15707777403602      -0.25568397437675
C         2.31188050455667       1.47975864467874       1.08657072433976
C        -0.27193266448814       0.45160870439631       0.13735041253439
C        -1.52799918605313       0.40321303704469      -0.73704901462592
C        -2.81455084610189       0.43747152186794       0.08451966272721
C        -4.07417767311427       0.36743794982985      -0.77671538873206
C        -5.35569827960181       0.39774712407879       0.05263386545875
H         2.35886202095017      -1.64416742542420      -0.22305976953680
H         2.01879739003921      -1.10571216224115       1.45397681650256
H         3.41073382421037       1.74786136720372      -1.25686152103949
H         3.17974861048814       0.08911440497010      -1.86664168660924
H         0.98436065797826      -0.39548432446341      -1.42244038148125
H         0.99316718854204       1.39745441257295      -1.34848792065301
H         4.57326194406147      -1.86155338322069       0.66958681938387
H         4.35585207657474      -0.52988805419668       1.81455717111326
H         5.21579310275319       0.97306073605719       0.23075396487182
H         5.34685042748679      -0.30810157036485      -0.97851810364916
H         1.70257878695052       1.12373105968922       1.92522175712281
H         3.34825856237290       1.62446245637420       1.40941216770593
H         1.89064565667001       2.41540915553497       0.68481008611927
H        -0.26393571954393      -0.41805413063639       0.81929428936684
H        -0.30794575613956       1.37306275720529       0.73901629234751
H        -1.51455632540985      -0.50832934260483      -1.36335924802033
H        -1.51130257136227       1.26690572292931      -1.42571705797613
H        -2.83386889256088       1.36538839295398       0.68524596937982
H        -2.81737890127795      -0.40432192202392       0.80370364775755
H        -4.06988643021264       1.21295181651903      -1.48850080230940
H        -4.04584165294399      -0.55440801260914      -1.38633419021131
H        -5.41531653344733       1.32249353297258       0.64836105994208
H        -6.25223165846739       0.34934279099851      -0.58507107007086
H        -5.39256482562252      -0.45399805325249       0.75115815525461
S         1.36483336581064       4.19373062995663      -1.40680082295942
O         0.65276240350397       5.19105538681427      -2.19817428652195
O         2.02609486608123       3.10157787161795      -2.16555431097744
O         0.68131505717296       3.71659529777785      -0.17980960037318
C         2.84340549376369       5.13465793793032      -0.71905941560326
F         2.45894441764628       6.13186682347209       0.11485597476307
F         3.59156129396198       5.67571906562264      -1.71250223320212
F         3.67029535030881       4.29843303826880       0.00182134751090
