47
C13H13F18N2P optimized with ForceField in AMS.
N         0.10623010226711      -0.56339626069675      -0.42832666960788
N        -1.98109340183820       0.13250766144670      -0.10682242906968
C         1.46912056384652      -0.65998276706413      -0.95011605310412
C         2.50567581821798      -0.40823032395607       0.15164787690781
C        -0.82602171732124       0.34989552364847      -0.76496989956634
C        -0.48228501342050      -1.38731159186330       0.46330219719820
C        -1.77680015662565      -0.95306196159947       0.66459722173311
C         2.41827585446892       1.01228643234715       0.70637233026075
C        -3.21116543324896       0.90746696636592      -0.20568390013026
H         1.61816653083799       0.07365634618593      -1.77302699288371
H         1.62478385790503      -1.67518927803202      -1.37456185914250
H         2.36567516024722      -1.13788411976425       0.97809392303609
H         3.52151132863610      -0.56344038330961      -0.27119934660422
H        -0.66639567642533       1.15512723673052      -1.47178588457512
H        -0.00831892226796      -2.24166589523392       0.92880078056462
H        -2.51379319244805      -1.39776867037995       1.32079144793201
H         1.43463908300072       1.18017628350996       1.19387221368166
H         2.55590839983453       1.75442962732086      -0.10855845741835
H         3.21609612339912       1.16409496828969       1.46345513564027
H        -3.08604834212509       1.74780152294398      -0.92155568045584
H        -4.03645352262129       0.25435597261122      -0.55928067335043
H        -3.47293241906652       1.32091057686792       0.79092607245465
P         8.86393483586920      -2.36454720329804      -3.42928585932567
F         9.38329765117519      -2.28402015768014      -1.78676942559435
F         8.73665017269508      -4.02083885094557      -3.88774996454780
F         8.77799403169073      -0.72943594638310      -2.90092752118443
C         7.23720208813216      -2.96852074570757      -2.57639703656565
C        10.75911884218107      -2.75380859858625      -3.49313669199643
C         8.56416403635707      -1.51168500546029      -5.12488458984274
C         6.46372268178381      -1.90555260902570      -1.76561654685722
C        11.35480125135800      -3.18455766797035      -4.85774025377866
C         7.22334252982147      -0.78365862338590      -5.33563801069893
F         7.54565369624920      -3.99675814867767      -1.69309612697886
F         6.36790558054209      -3.49861423067316      -3.51668569552204
F        11.04918671582118      -3.78555949128753      -2.60539369370248
F        11.45633356296417      -1.62834815276968      -3.08022837267562
F         8.66696610535008      -2.47260701284716      -6.11488201627764
F         9.55707606248442      -0.56891823001179      -5.33447224978046
F         5.37898712309236      -2.51055184893945      -1.15576409828551
F         5.98495947723167      -0.90170278484902      -2.57826537630772
F         7.25238115737647      -1.34831540756909      -0.77588703115264
F        12.65081895880814      -3.62553247290859      -4.65366578364774
F        10.64559752628088      -4.22160002896405      -5.43316123206125
F        11.41972187260934      -2.12972338112270      -5.74438726530274
F         6.14949544615736      -1.62191680256997      -5.12887276586524
F         7.16155707444319      -0.34315863752075      -6.64609003660900
F         7.12261380427320       0.32731273498466      -4.51876216963991
