31
C11H17NO2 optimized with DFTB in AMS.
N         1.25770120340865      -0.02205288192561       0.68683609644886
C        -1.02201817818245       0.68473141052031       0.04802300001095
C        -0.12142031225704       0.11667027532068       1.15100503505388
C        -2.48681773424261       0.67490497093820       0.49401696531190
C        -3.39282409296064       1.30940253849839      -0.55982294264498
C         2.02034491132375       1.18265240567675       0.50785775295999
C         1.85998050394271      -1.24514179299723       0.66408437123833
C         3.28237408048568       0.94199393075839      -0.25122683662940
C         3.11204503151210      -1.42107524511913       0.18166334139810
C         3.81219926506619      -0.28750866199679      -0.34604790477094
H        -0.90193769726802       0.08591854956215      -0.86032431331327
H        -0.72094172289007       1.71150810808745      -0.17867875012683
H        -0.47868537908399      -0.87543185938470       1.44357161426825
H        -0.14969251803359       0.76703419048150       2.03081802471350
H        -2.80758589255845      -0.35656300727550       0.67701961356314
H        -2.58201735639686       1.22716871902020       1.43498185495911
H        -4.43000671612961       1.28521074856215      -0.22473810456962
H        -3.10717834916588       2.34772576250914      -0.73264486792721
H        -3.31951845765973       0.76748451652223      -1.50388194816933
H         1.39325866093837       1.95855250829952       0.04854660275320
H         1.25052218485280      -2.07651431892953       1.00294635218809
H         3.77031868829282       1.82236822050916      -0.64955834375302
H         3.55643890870720      -2.40568250014068       0.14709177180802
H         4.75372539865848      -0.44764001184406      -0.85987097510859
C         2.21482283818761       3.15655069391754       3.68897475212273
C         1.64714367784032       2.68047558093778       2.37061920026294
O         2.39547652596918       1.71899909584668       1.84648443431615
O         0.64919019122198       3.12891671774160       1.86623738158023
H         1.50989512004958       3.82804044842964       4.17211219901971
H         2.42323442510914       2.30022702766657       4.32710205336495
H         3.15009043206230       3.67998926280722       3.49560520707117
