49
C15H32ClN optimized with ForceField in AMS.
N        -1.08123322945017       0.83646306289108      -0.20833306273354
C        -1.56360163391483       1.90881037098996       0.72286265036666
C        -2.05152422883016       0.71798224294811      -1.34486893388363
C         0.22658737969886       1.27249778576962      -0.80857895426228
C        -0.94135511133997      -0.45609310269709       0.54881052795357
C        -3.01376011463573       1.71003858379005       1.21280514917719
C        -3.50169321733166       0.45290321912776      -0.90865591073860
C        -3.98226295307867       1.54228059710622       0.04510166348904
C         1.42608467404325       1.36629865483359       0.16776800477213
C        -0.36345296987338      -1.64853875152160      -0.25144781797720
C         2.68081892193691       1.85299314913897      -0.57145885099685
C        -0.25849808415776      -2.88994390568287       0.64484182981358
C         3.89535012660266       1.90890854381492       0.36257550458734
C         0.32528125144936      -4.08227011065621      -0.11976863095007
C         5.13739206125648       2.39406180050553      -0.38068914333710
C         0.41000632793985      -5.31718856172292       0.77344927173859
H        -1.51291480260459       2.90616302371040       0.22858603786645
H        -0.92179229145307       1.96779869266653       1.62804684063221
H        -1.74442874389585      -0.07010634143760      -2.06227114535439
H        -2.06107301014447       1.66302002858703      -1.93657424119316
H         0.10646986640775       2.27348283344993      -1.28473659859204
H         0.51263768281498       0.59345804950158      -1.64249497481970
H        -1.91877294394065      -0.78509057555748       0.95157398752444
H        -0.31123691757576      -0.30135732554453       1.45250397733960
H        -3.31974098636522       2.60168260245055       1.80160065887222
H        -3.08667954397170       0.83926445097343       1.89735535902753
H        -3.60612765664776      -0.54922795778498      -0.44347767548816
H        -4.15339434200611       0.45596154964644      -1.80909467416952
H        -4.06951303660734       2.50476098587066      -0.50479722453093
H        -4.98925472481278       1.27600577557897       0.43303828815888
H         1.20645799711103       2.07841176706549       0.98910343002061
H         1.65180136011452       0.37280877114560       0.60628074488766
H        -1.02352454464788      -1.89801091146893      -1.10627011545245
H         0.64905914572395      -1.41301824758698      -0.63697119899082
H         2.49204272975334       2.86707783323830      -0.98748368002419
H         2.90291285632376       1.16180237350618      -1.41445532776733
H         0.39407514247835      -2.66191274526235       1.51664764549928
H        -1.27065554026181      -3.15744057320616       1.02171397337460
H         4.09824545183722       0.89692304262469       0.77638400651111
H         3.68866536763043       2.60095531955995       1.20777148759685
H         1.34492565230606      -3.82920765428017      -0.48331641021584
H        -0.31559116776962      -4.31584903491988      -0.99762079374000
H         6.00159057948187       2.42395707812529       0.31618867314619
H         5.38069064837416       1.70491476951256      -1.21771638539630
H         4.97148544923090       3.41580863547513      -0.78444117180992
H         0.82419323837924      -6.17039266899851       0.19582798946576
H         1.07442344111388      -5.12047616898271       1.64203798695931
H        -0.60006339616670      -5.59682820132839       1.14247481338753
Cl        2.18722082657480      -5.95448799626516      -2.68798510254434
