40
C12H25NO2 optimized with DFTB in AMS.
N        -0.75645759394433       0.24008818606271       0.02640491130214
C        -1.63150151133578      -0.17393724083559      -1.11376351396424
C        -1.72585566399781       0.88988147753570       0.97296271468227
C        -2.91661683592468      -0.67960483030631      -0.46141927205728
C        -2.98813923620216       0.04057821313875       0.89426723533978
C         0.27534382861359       1.22130806783841      -0.43347335121795
C        -0.13691513837175      -0.94879678270923       0.70626708039391
C         1.23741286008714       1.65744769432417       0.67359216754746
C         0.84082179741630      -1.74748777032607      -0.14784642510546
C         1.98715121567597       2.91594695242291       0.24301579671300
C         1.40466830885631      -2.89020319705523       0.69823786972252
H        -1.82458792915396       0.71467182727887      -1.72034578598422
H        -1.12573842348716      -0.91976282542709      -1.72587975542653
H        -1.28135595776221       0.90939694920118       1.97165473260237
H        -1.90392106321958       1.90780807964372       0.61703867977493
H        -3.77461423307163      -0.44589399757718      -1.09446373096312
H        -2.87909830498453      -1.76229412687623      -0.32569347264372
H        -2.99908990640157      -0.67545090579931       1.71949213986497
H        -3.87441694011411       0.67279636995309       0.96807691321873
H         0.82059823906302       0.76361689806447      -1.26347950317275
H        -0.26815443810401       2.08806993452908      -0.82157624287830
H         0.36176433784505      -0.56030740586951       1.59788953531609
H        -0.95496409551432      -1.58411637244389       1.04715764640257
H         0.69069251803498       1.84985232892650       1.59945730525621
H         1.95729801388549       0.86162443204887       0.87763917536281
H         1.66604711113355      -1.11673370686858      -0.49039370615445
H         0.34656037579459      -2.16587232306191      -1.03038950995928
H         2.54623205216058       2.73854716972973      -0.67720232252750
H         1.29254257880699       3.74034436613360       0.07584123363030
H         2.68781187736330       3.20629238144211       1.02492687885817
H         1.92480663595958      -2.49456993168131       1.57053289592865
H         0.60125054017959      -3.54292909922734       1.03991731999782
H         2.10688357601945      -3.47793845969860       0.10747851538539
C        -0.45122276524030      -0.64783829917609       5.37768826371753
C        -0.61804538167044      -0.38176250478326       3.86495225880777
O        -1.45069945998700      -1.08859640114482       3.26079330481962
O         0.10312748351514       0.51286398551791       3.36072350226054
H        -1.43220464892267      -0.68841394864838       5.84830327122592
H         0.03608033862411      -1.61377603167242       5.50700365415868
H         0.15480514827524       0.13010287959659       5.83768739886462
