33
C9H17BF4N2 optimized with DFTB in AMS.
N        -0.09341895798247      -1.13069000995277       0.15691926010967
N        -2.10123550902896      -0.46247443636009      -0.24167917654794
C         1.28483045052089      -1.17771286799631       0.63523781394062
C         2.24439481641025      -0.58050302761392      -0.40288470469223
C         2.25318895732945       0.95036351434868      -0.36789408326432
C        -0.97598305808838      -0.16236392655307       0.40009442506009
C        -0.64699828644212      -2.03204041343841      -0.71329181159074
C        -1.91137843748186      -1.60878981404724      -0.96435346369081
C        -3.30728928247359       0.35983610683932      -0.35361908299542
C         3.03093088691374       1.51652438878360      -1.55352387033359
C        -3.20156703393520       1.65577961886800       0.43017017732102
H         1.33361067294604      -0.62985097758804       1.58075413274218
H         1.52659752907840      -2.22779923172346       0.82179735450693
H         1.94294893227664      -0.92345383619643      -1.39546327074287
H         3.24735901641110      -0.96576391153789      -0.19501716944714
H         1.22570845670338       1.31874797420852      -0.41365007789579
H         2.69679635160568       1.29213344354085       0.57455739771375
H        -0.80269917181258       0.69542296386604       1.02284223750069
H        -0.09867876007809      -2.88073039982443      -1.08147210102418
H        -3.43137647935318       0.57417158416308      -1.42016714337149
H        -4.15291586046307      -0.24428978026159      -0.00830557930758
H        -2.67689012613975      -2.00649894109430      -1.60622074093192
H         2.54789326774424       1.22280115989494      -2.48525672992266
H         4.05875463540130       1.14913684256748      -1.55575031510700
H         3.04814916326793       2.60478824878281      -1.49828359460046
H        -3.06267091108536       1.46726168104740       1.49520191167282
H        -4.12421324836901       2.21815250858897       0.29158368469238
H        -2.37018460939140       2.25089034090920       0.05467090600316
B        -0.65777345001480       1.01699110718639      -2.59058820821166
F        -1.92642864404131       0.47120827381800      -2.86487342158888
F        -0.72275575081684       1.63110809210927      -1.29185619659950
F        -0.28820427139816       1.94449507885279      -3.52635397093770
F         0.27444808408713      -0.03480724038741      -2.50405045395945
