39
C11H19F3N2O3S optimized with DFTB in AMS.
N         0.94443095333462      -1.67580800056744      -0.36244353171814
N        -0.37343643799321      -0.47925767021813       0.85384398650321
C         2.10938903644099      -2.47335891488267      -0.75264886220962
C         2.62275077296748      -2.11365350608747      -2.14573267233499
C        -0.89099073945392       0.24879139830834       2.01518872232108
C         0.76754948890633      -1.16282814383960       0.85210736780378
C         3.09289435956183      -0.65899907758343      -2.23670583883457
C        -0.10782841635844      -1.30963871749565      -1.15682422875990
C        -0.93882937944276      -0.55542317162442      -0.38982076745070
C        -1.47701462961021       1.60909571835821       1.63824108719002
C         3.64599822407820      -0.34479102217050      -3.62388390012410
C        -0.44057359264002       2.53938740268911       1.01432296936143
H         2.88223035904448      -2.28111947046483      -0.00322377766225
H         1.82095266188750      -3.52923139834766      -0.71278266661194
H         1.84797329007670      -2.31158459217118      -2.89394818715885
H         3.46142500236329      -2.78539153498469      -2.35556610740718
H        -0.05044738385573       0.37621988083292       2.70270764830984
H        -1.65537363933728      -0.37700149793439       2.48823692788599
H         1.43765643016786      -1.27419661056870       1.68691496213467
H         2.25720256515922       0.01033655558457      -2.01618774516148
H         3.86502767974343      -0.48331721379182      -1.48297007917490
H        -0.18784953553607      -1.60686245767452      -2.18707532823804
H        -1.87187656509763      -0.07986002240471      -0.63373094677163
H        -2.32637533654809       1.47533696724017       0.96047555288277
H        -1.85955371356253       2.05227849281588       2.56304880930849
H         2.88131812340814      -0.49698401739728      -4.38802997861026
H         4.49830314943956      -0.98621908455900      -3.85454771856299
H         3.97321517768049       0.69383147756768      -3.66161071400682
H        -0.05928770508122       2.12266443161031       0.08316152337509
H         0.39866570501041       2.67982209530172       1.69430026547743
H        -0.89514538685345       3.50782797371708       0.80685472586739
S         2.89907375339248       0.84414409121277       1.19376712663633
O         3.59693061665849      -0.42516883048907       1.03122047046573
O         2.10620334339554       0.92733906731585       2.41370481298207
O         2.19319012943690       1.28436770708829       0.00063716345387
C         4.24165949153359       2.09196433231133       1.42587840775995
F         5.02313014795767       2.13491423230680       0.35282434878202
F         4.99041849893726       1.79198012465918       2.47891331576506
F         3.71881435028809       3.29865986463700       1.61157640393211
