41
C11H22F3NO3S optimized with ADF in AMS.
N        -0.90777025695909      -0.01193988810236      -0.15275473465985
C        -2.05693054631886      -0.02970473472319      -1.14876227114518
C        -1.12373669491386       1.30630258715099       0.55714999402547
C         0.42399964703074      -0.05703326084638      -0.87030068159047
C        -3.24737311996974       0.53605759604529      -0.37799323618406
C        -2.63779802685361       1.42820596811060       0.73552714784119
C        -1.04824233716425      -1.14765428282852       0.84937447366730
C         1.63545167372498       0.05574971809583       0.03610689882713
C        -0.80618523635000      -2.52806177674452       0.27451681382864
C         2.91036141897045       0.00112882368651      -0.81346714866921
C         4.17335254283840       0.10312788504589       0.03636194267252
H        -2.18378966299430      -1.03812136925977      -1.56615019703597
H        -1.74486554309368       0.61888741713571      -1.98004885776924
H        -0.54822868348655       1.32145850414243       1.49055615652247
H        -0.73486270991473       2.08040349318393      -0.12082181014138
H         0.45247470743720      -0.98954248216816      -1.45505177249333
H         0.39425564245635       0.76768231980995      -1.59956244628074
H        -3.89613321551688       1.10407575088763      -1.05932505800045
H        -3.86159536523473      -0.26721914045419       0.05430667515396
H        -2.94746423806913       1.08874991221355       1.73522770746169
H        -2.94288425483358       2.48031652513360       0.64277676677025
H        -0.34121831891612      -0.91979644542827       1.66102828965420
H        -2.06511812482359      -1.06152460021349       1.25862698423364
H         1.62322490436158       0.99736315089383       0.61464508791417
H         1.66203957986082      -0.77585744078405       0.76188368188674
H        -1.03177489544259      -3.26172653721717       1.06352352220806
H         0.23550883615999      -2.67525768335532      -0.03981889064343
H        -1.44178143407696      -2.75049949252523      -0.59531718506552
H         2.90943634049300      -0.93553432361616      -1.39604506242021
H         2.88673646905201       0.82221071109676      -1.55143303602001
H         4.22833579984940      -0.72311240964170       0.76316596100366
H         4.19953719374445       1.05015487770385       0.59859429429066
H         5.07718834902290       0.05885097206918      -0.58953299897646
S        -0.57363570243917      -2.11399860433240      -3.63042483058776
O         0.63548388172425      -2.53706152785240      -2.88730792558737
O        -0.59280530852835      -0.69063186479599      -4.01708998658651
O        -1.84339094781569      -2.61610200669733      -3.05561967820651
C        -0.42973182148227      -3.03356049718946      -5.26070552960190
F        -0.45115642165975      -4.37885050887647      -5.06680508726549
F         0.73346051119047      -2.72077744836259      -5.89142475288828
F        -1.45600238205949      -2.71383970869044      -6.09268478304246
