40
C10H22F6NP optimized with DFTB in AMS.
N        -0.15128484536571      -0.75780646990692      -0.16019308535706
C        -0.70382508354132      -1.54586118945761      -1.31882832570486
C        -1.29614703893702      -0.63148032071128       0.82127600965621
C        -2.17957348844530      -1.19310993078878      -1.37553699642148
C        -2.56803511099466      -1.07302455869474       0.09607485032736
C         0.26588115346223       0.59276799284426      -0.66052669406383
C         0.98378749447083      -1.49860079941374       0.48828367171996
C         0.95317659379151       1.48016498209968       0.37789863848099
C         2.16355843927573      -1.76719802071878      -0.44182349196795
C         1.11985783703195       2.89071498587282      -0.18685248747167
C         3.10954908888605      -2.76283703982296       0.22908501434910
H        -0.15996575981771      -1.29384912184001      -2.22869644481419
H        -0.57612084028094      -2.60372172034979      -1.09278041147103
H        -1.08752518207169      -1.27544769736308       1.67481014435926
H        -1.35524029902299       0.40210666563861       1.16256888963625
H        -2.34403790667028      -0.25380798882530      -1.91053785895166
H        -2.73767032637059      -1.98779779935830      -1.87030181078430
H        -2.88654564659118      -2.04594684183464       0.47480936830602
H        -3.37403163114944      -0.35325938060875       0.24688562246314
H         0.94043001493192       0.43413780291119      -1.50539982031425
H        -0.63888905296852       1.08188680119979      -1.03107695585132
H         1.29745398086898      -0.92245883526223       1.36103697558819
H         0.56937650520354      -2.44789506273999       0.82981865373219
H         0.36605896351191       1.52754656786104       1.29838206874702
H         1.93827597236821       1.07698531661821       0.62489600112111
H         2.69979891626754      -0.84046543534507      -0.66888807074671
H         1.80870652182203      -2.19642524155399      -1.38167610404470
H         1.71889076294171       2.86992767492469      -1.09763098651492
H         0.14869995806783       3.32973152113690      -0.41716064904033
H         1.62208560889907       3.52123561843349       0.54575870005426
H         3.47292628487970      -2.36854547098342       1.17869657114578
H         2.59236200337601      -3.70412314584113       0.41261357980453
H         3.96349715031411      -2.95307832050211      -0.42026241400957
P        -1.17249089330899      -4.86939262918978       0.61338523123395
F        -1.17835582899906      -6.19992927441327      -0.31524739032507
F         0.20428504622632      -4.31540739161446      -0.18496811152957
F        -2.09313324139429      -4.05492821848499      -0.52178311512055
F        -1.14183661893575      -3.43944760324531       1.51654516738594
F        -2.52478748050558      -5.32250197304515       1.39165729554626
F        -0.22265096272617      -5.57668376282512       1.73167765744748
