32
C10H19ClN2 optimized with DFTB in AMS.
N         1.85792587528297      -0.83101364423360      -0.32630660676638
N         3.16970128905355       0.88081396408945      -0.29466478483956
C        -0.38921991617260      -1.85098454064585      -0.10526551598092
C        -1.13899073953236      -0.54068205075830      -0.35510161079096
C         0.96820088704512      -1.88176724101966      -0.81187757271709
C        -2.49881117649727      -0.53356035072519       0.34675607465870
C        -3.23151388056331       0.78673985671484       0.08783440911374
C         2.42639912054160       0.10527439656083      -1.08897229180030
C         2.17082188463287      -0.58807851012348       0.99011473970794
C        -4.58977880126062       0.81833953781217       0.78607099314567
C         2.98519408130230       0.49566877695688       1.00784806608110
C         3.76880373725410       2.12612624340164      -0.73979940934693
H        -0.24625546712712      -2.00527336631345       0.96901777164504
H        -0.97162855033582      -2.69554497101229      -0.48731543666030
H        -1.27908814792809      -0.40265099136451      -1.43096760744542
H        -0.53790606825168       0.29702493503846       0.00669363505684
H         0.84366664152176      -1.72845733569502      -1.88703847000778
H         1.45985832168394      -2.84657062018091      -0.64543375787613
H        -3.10722976884584      -1.37019973923754      -0.01600742388224
H        -2.35546127717140      -0.66889752296027       1.42516326240488
H        -2.61709768421635       1.61802763269991       0.44730005376631
H        -3.37263820992019       0.91757397660320      -0.98966559819263
H         2.43244160753156       0.11725848168219      -2.16287356684764
H         1.80116593771576      -1.20240178526695       1.79161078589763
H         3.45263392524766       1.01210355509418       1.82770941523951
H        -4.46900614440452       0.71245946082641       1.86555637258801
H        -5.09147767156969       1.76522602652511       0.58481428076881
H        -5.22467196766415       0.00628278424679       0.42756022508976
H         4.47112115173861       1.92627490196328      -1.54863997837391
H         2.95575800739572       2.76226794753818      -1.10224281325895
H         4.28267463890774       2.59586598549249       0.09601700637809
Cl        0.69534635460574       1.91255586109103      -1.64527038325488
