63
C17H36F2N2O4S2 optimized with DFTB in AMS.
N         1.13744764376649       1.09791211281267       0.63001193558986
C         0.67460330536044       2.21712353554315      -0.25988322025573
C         1.72282731375594       1.69413203679370       1.88039088353476
C         0.01591657664749       0.17131287959244       0.99928600072066
C         2.22601824011650       0.37311783979014      -0.12434737078662
C        -0.31756104836520       3.15372304588367       0.41595122746962
C         0.76346842335840       2.62764305568383       2.60666719027824
C         0.28606435809021       3.74869073354948       1.68630712911995
C        -0.58468574630704      -0.61683819992006      -0.16301142137068
C         2.84211206467875      -0.81581707384707       0.60578428450398
C        -1.78379802566878      -1.42810997409283       0.34322349042094
C         3.87047695039264      -1.48073439225824      -0.31757463749010
C        -2.40230552645463      -2.25517009765094      -0.78782908755350
C         4.60290018788591      -2.61415434096910       0.40556016891960
C        -3.60016662582738      -3.06879090574731      -0.28776910557568
C         5.65458702532089      -3.25587565800898      -0.50454266474791
C        -4.21792880350830      -3.89641653537350      -1.41325980461760
C         6.39615481471983      -4.38387126050413       0.21080120405801
H         1.56960154339112       2.77417456073791      -0.54321740080453
H         0.24189984467042       1.77422157479647      -1.15853620259374
H         2.01941998505513       0.87174046252201       2.53289250258447
H         2.61500694252810       2.24409113865656       1.57794416857026
H         0.40516651808743      -0.51798285463565       1.75216355056803
H        -0.76461590078661       0.77308502670530       1.46773223318408
H         1.79705050682284       0.05732508884902      -1.07805140481797
H         3.00458108229580       1.10989575845615      -0.32887375223488
H        -0.54186678454293       3.95232652948031      -0.29595811465402
H        -1.25587086222507       2.63787643423951       0.64148821754000
H        -0.09088540162162       2.07610421124668       3.01131209715239
H         1.31154074966191       3.05369342188870       3.45111649953627
H        -0.45902165517677       4.35986509490815       2.20094197967354
H         1.13304637914117       4.38722663019641       1.42174257559911
H        -0.91733092028430       0.05774587486181      -0.95591295170050
H         0.15423839025372      -1.30115464251658      -0.58638009047365
H         2.08275047184072      -1.54990455322607       0.89059641589451
H         3.35016647861463      -0.47516156492531       1.51085666679159
H        -2.53665396092717      -0.74753450264627       0.75513269058460
H        -1.45751182138767      -2.09411327179558       1.14908587707789
H         4.59588834730691      -0.73172729806289      -0.64530604988864
H         3.36569125972806      -1.87335941046065      -1.20718705187335
H        -2.72402495280634      -1.58596782713409      -1.59303038866807
H        -1.64531336307182      -2.93191808059658      -1.19834969021535
H         5.09077914086816      -2.21537784898912       1.30108446683160
H         3.88049386703953      -3.37317194515376       0.72744258537353
H        -3.27567186281908      -3.73467023388613       0.51896603204940
H        -4.35507561612136      -2.38947903188760       0.12241432938461
H         5.16747019325829      -3.65151040289392      -1.40247953258328
H         6.37247588658717      -2.49270555552651      -0.82156123629325
H        -5.06710879347287      -4.46531230251102      -1.03463004756243
H        -3.48550676016745      -4.59445902639904      -1.82077545025485
H        -4.56506573573508      -3.24780812878418      -2.21863918879898
H         6.90596276261923      -4.00359464812263       1.09704100507298
H         5.69988082314563      -5.16506307064170       0.52013790254929
H         7.13910133388091      -4.82374758403039      -0.45471862706151
N         5.65684428039594       3.58407789084729       0.00898609457744
S         5.79567161945980       2.09448819896447       0.54779910836625
S         4.25131364163361       3.98657515318904      -0.58353977360421
F         5.75089631870948       1.18546393378058      -0.80366149205502
F         3.27645763503253       4.12293404921838       0.75378959440764
O         7.10845004925335       1.91660845020520       1.05970443496059
O         4.68433136453225       1.58641446364767       1.31036035413994
O         3.54895112426841       2.98981893817607      -1.34893532017183
O         4.31708355680169       5.31378876597507      -1.08572827417768
