55
C15H25F6N3O4S2 optimized with ForceField in AMS.
N         1.36788316672778       2.27283723321625       0.04592308818792
N        -0.83603801312592       2.43349466557400      -0.20932381235008
C         2.74612847797289       1.85634050920373      -0.20499369824960
C        -2.17093634448594       2.23934022521614      -0.77467342265550
C         3.01359006466657       0.45784120951318       0.37228535618624
C        -2.41395081840895       0.76112364119097      -1.11741024176416
C         2.06579677654768      -0.59734590269524      -0.21858546652954
C        -2.35691620555860      -0.13383646954918       0.12968843658227
C         0.33878943404573       2.18250317168767      -0.81912880407597
C         0.82786824986737       2.60087644023561       1.23682499317145
C        -0.53835431307421       2.70807268583813       1.07696585177165
C         2.43399701422193      -2.00842671264263       0.24903497802328
C        -2.55853735011223      -1.60803238233996      -0.23594954023412
C         1.44208731942287      -3.03713356910944      -0.28803173608035
C        -2.48811175910741      -2.49492654244716       1.00491294826873
H         3.44169009256344       2.58957667313421       0.25718072695671
H         2.94605159806771       1.84779598668574      -1.29921399825494
H        -2.26933531245179       2.85301904070548      -1.69584115607494
H        -2.94554676954450       2.58430389748062      -0.05487517926325
H         2.89758077266830       0.48484679413665       1.47787029839858
H         4.06581952553156       0.18072395427950       0.14353019155445
H        -3.41596330364321       0.66682890423666      -1.58977277135878
H        -1.65632916252060       0.42335848092361      -1.85802379240750
H         2.10783380779459      -0.55267942822762      -1.32800304020249
H         1.02534713206830      -0.37730955660924       0.10225738548887
H        -3.14647979200806       0.18311322452784       0.84594399909335
H        -1.36869364803449      -0.02300318822566       0.62524146177220
H         0.43501866970195       1.85539431846965      -1.84722676062395
H         1.37691024551879       2.68994617381249       2.16524851903144
H        -1.26413012521160       2.89549358897903       1.85750463375427
H         2.42644093473457      -2.04881612628239       1.36014353156839
H         3.45441951122758      -2.26789811954084      -0.10742138830243
H        -3.54950494938029      -1.74329660834777      -0.72138505071056
H        -1.76972058728771      -1.92655987643003      -0.95220046222006
H         1.43284443406216      -3.02547737174858      -1.39801114125602
H         0.42040397908287      -2.81561452233074       0.08234512868180
H         1.73106553128581      -4.05202355656655       0.05666499331883
H        -3.31412438268872      -2.24435756850603       1.70379747452364
H        -1.51743603653599      -2.35713497528162       1.52731027600342
H        -2.58255335016998      -3.56074049208423       0.70819463819686
N         3.28548998941502      -4.49192735996427      -4.94152816855100
S         3.97054313693019      -4.82407641727496      -6.39285116445795
S         4.10577673145975      -3.77817179600938      -3.71499335484335
C         4.60757556274646      -6.48679771632173      -6.37082190779934
C         3.76706238459436      -2.03067008648824      -3.72976671114449
O         2.92598178848412      -4.71808521101780      -7.46709619148051
O         5.08921205392607      -3.86265703171590      -6.68464396656305
O         5.58551896054319      -4.00138042992776      -3.86045620126732
O         3.63971229011448      -4.35586711891987      -2.40949043763049
F         5.17266795671369      -6.78191404582392      -7.59675494512611
F         3.57757631379574      -7.37226200320968      -6.11598380106755
F         5.56709298179328      -6.60512427335151      -5.38376663044887
F         4.39572117880072      -1.42833278565017      -2.65678377398124
F         2.40381877560147      -1.82357717672299      -3.64181297574759
F         4.23689274835120      -1.47706994518407      -4.90509680681124
