34
C10H18F3NO2 optimized with ForceField in AMS.
N         0.03027633570011       0.01604704998722      -0.02316821819237
C         0.95385587934653      -0.81990935659928      -0.85008768494802
C         0.92457062336944       0.85837213656463       0.82878566495069
C         2.36536416971083      -0.29518308866290      -0.66925558283993
C         2.34260541956111       0.33804309158487       0.69338989636314
C        -0.81417373535325      -0.85974558313153       0.85234381498425
C        -0.79763746787608       0.88556068959606      -0.92109216331265
C        -1.80804853461029      -1.75578989844976       0.08995259216570
C        -1.81586208839102       1.77629850351618      -0.18510985538157
H         0.69035179839480      -0.82796430427515      -1.93234966748722
H         0.96362972413999      -1.88552124463042      -0.52401000950148
H         0.62792854078039       0.86892294549293       1.90254360505158
H         0.94027629659826       1.92275159179263       0.49900537333051
H         2.58526867652614       0.47369029455296      -1.44255278855312
H         3.12016253961331      -1.11001375719376      -0.72717149126855
H         2.53941788919978      -0.43063080762422       1.47305259871474
H         3.09270468747782       1.15509044070547       0.77578528100993
H        -0.16146896542303      -1.51958000985556       1.46911603762930
H        -1.39201379834972      -0.24976990939324       1.58078802109346
H        -0.13427831194601       1.54893703746633      -1.52241096788872
H        -1.35331443546870       0.27139500925222      -1.66314317206795
H        -2.26274173054298      -2.48011632389668       0.79767986879730
H        -2.63300760690048      -1.15676370718946      -0.34564938272969
H        -1.31047440754771      -2.33023232195540      -0.71704231863313
H        -2.26186657003548       2.49151008718960      -0.90779435105232
H        -2.64433266304257       1.17254125282560       0.23711380605855
H        -1.34072050876043       2.36035779321821       0.62856256038575
C        -1.22944245713265      -2.02660412154384       4.55587927539697
O        -2.02811994692885      -2.16406794720923       3.64331920227329
O        -0.18492636158258      -2.65759409389640       4.54346652176788
C        -1.52821208587378      -1.09666875650887       5.69384571576532
F        -1.63015889139977      -1.82267514354974       6.86639917660706
F        -2.71900156563437      -0.42600807828230       5.47283986592145
F        -0.50688481851876      -0.17221904989719       5.81734122458982
