45
C11H24F2N2O4S2 optimized with DFTB in AMS.
N        -0.72733362432434       0.46298827493140      -0.07621278154379
C        -1.84909243261720       1.33415387914485       0.42150901460979
C        -1.06146049155176       0.01435055166509      -1.46745394793936
C        -0.52944141860834      -0.69574087750155       0.86065384592171
C         0.52133837757706       1.30518236214905      -0.16897803429757
C        -3.21264441804875       0.66103321018339       0.36670969832195
C        -2.39246649345364      -0.72555636255492      -1.54304316609468
C        -3.53037719253442       0.16196371965428      -1.03974388902894
C         0.54595291798328      -1.69634731463321       0.44716088671235
C         1.06852133993574       1.81828769884626       1.16321236047132
C         0.69749608630458      -2.73301944330547       1.56174513606948
C         2.24474235160886       2.75519982184516       0.89297312851990
H        -1.61526176803335       1.61359223037923       1.44614174401148
H        -1.84839137398056       2.23406202892014      -0.19952562095240
H        -1.10353559644969       0.91491510430352      -2.08697133532167
H        -0.24429015018153      -0.61417222886781      -1.82599567171038
H        -0.27909828264311      -0.27237926668699       1.83202295943205
H        -1.48624693249542      -1.20808828656910       0.96084437318549
H         1.27784632685058       0.70270840022149      -0.67888360910199
H         0.27225643016608       2.15197404860405      -0.81483982503173
H        -3.26423022869884      -0.16230902291796       1.08224315702044
H        -3.94666033452390       1.40853328634062       0.67679107298985
H        -2.55999773849658      -0.99269011230447      -2.58987465216932
H        -2.34931418914154      -1.65253668942239      -0.96588808540783
H        -4.46374398362753      -0.40502538104112      -1.03116737801879
H        -3.65374155009527       1.01302354462254      -1.71769484303566
H         0.27041626722273      -2.20455946413707      -0.48135780514126
H         1.50501971477669      -1.19569154249815       0.29108782264910
H         0.30026082364197       2.36083060374624       1.71586983796568
H         1.40836724169686       0.98750389765836       1.78461518654855
H         1.45387740602313      -3.46564648419982       1.28287262404680
H        -0.24659958729644      -3.25061440619016       1.73158057353950
H         1.00147087337226      -2.25053821467563       2.49046071599758
H         2.64107460397280       3.11617744152657       1.84088769867763
H         1.92525512329226       3.61325001527022       0.30054556851440
H         3.04000435035133       2.23535942532488       0.35671368432260
N        -3.02029036916318       1.65457384193559       3.46086230043540
S        -1.95120039982384       0.54998295960284       3.83543816769568
S        -2.60819188147436       3.17190100570909       3.73613675081170
F        -2.07626617471838       0.34840736519845       5.42528333606660
F        -1.48317055602422       3.43630630627861       2.54875449568128
O        -2.40749352040235      -0.69102891332310       3.27560515543775
O        -0.56714182636214       0.88602054569355       3.62603626871294
O        -1.90190901927257       3.44936180514644       4.93845086129279
O        -3.70002219253303       3.99207807072705       3.33822364363359
