37
C11H23NO2 optimized with DFTB in AMS.
N         0.41951149385767      -0.29391927628398      -0.02763481300691
C        -0.35108117928582       0.33968170240438      -1.15158475457780
C        -0.27545175859245      -1.57613031868796       0.33781277468833
C        -1.80492312195781       0.61503339803084      -0.79384068507115
C        -1.73530168739984      -1.37128423510429       0.72496449798853
C         0.51255062989510       0.59107709068247       1.17961456804255
C         1.78151395275655      -0.61531835344914      -0.58609982109348
C        -2.50524627945386      -0.68468813553124      -0.40167351025908
C         1.26902702666582       1.89384120547120       0.96223884332961
C         2.73562676103452      -1.28956202545493       0.38532767986831
H        -0.31614296163698      -0.38065950105522      -1.97650078689027
H         0.16585031958088       1.25521053763299      -1.44423038006150
H         0.27576491476197      -2.03680433840265       1.15939155931190
H        -0.22950557630228      -2.21034639494477      -0.55551851064468
H        -2.28092640394027       1.03397135329883      -1.68440844736237
H        -1.88595593249278       1.35875855283060       0.00585082149685
H        -1.82330533821356      -0.80126753227072       1.65610340923547
H        -2.15839586901907      -2.36317689001517       0.90526113767415
H        -0.50432510047092       0.81860020156536       1.50213402989543
H         0.99404558857017       0.00755383150402       1.96800351407654
H         1.60659349920692      -1.26857726803418      -1.46300552048916
H         2.21002132706674       0.32289432764753      -0.94475474976359
H        -3.52927073562575      -0.47773680326628      -0.08098811230648
H        -2.53304402885648      -1.34810202501579      -1.27059238037174
H         1.21686195699634       2.46510156842515       1.88930099460599
H         2.31774027818941       1.72153774018531       0.72828864580455
H         0.82234721146297       2.49077408875107       0.16921204899211
H         3.66661044022141      -1.46794910704506      -0.15283575798020
H         2.95920117100952      -0.67087608865606       1.25457594473222
H         2.35492682182536      -2.25201383064540       0.72310179240891
C        -0.18150151000367      -3.52752022677273      -4.39844410245089
C         0.05903631023760      -2.58219559357407      -3.20065298922364
O        -0.93680863214681      -2.33022957056911      -2.48174259046897
O         1.21613647019803      -2.14849380827979      -3.03633243282350
H         0.70466507209863      -3.57896726389449      -5.02761273198116
H        -0.41873689845841      -4.52037367308007      -4.01733227040050
H        -1.03134027137885      -3.16783082959666      -4.97680081432436
