23
C7H8F3NO3S optimized with DFTB in AMS.
N        -0.86301081938433       0.13064539774555      -0.00656142999217
C        -0.15570467536016       1.25308898135488      -0.21510759607477
C        -0.26367953703098      -1.00390822249346       0.38389678215861
C        -2.31884056035880       0.22762894564961       0.04999471484360
C         1.22228431873745       1.23145290716042      -0.15301259960090
C         1.11359147784689      -1.07820217145311       0.45424646423553
C         1.87191029659627       0.05166817465870       0.18382758029044
H        -0.71446181420331       2.15008696410621      -0.44611323353222
H        -0.90243152586715      -1.84547659416207       0.61608762363393
H        -2.75353326501522      -0.76746147706041      -0.00627062755813
H        -2.57431135805157       0.69459413525697       1.00307764456275
H        -2.67420317721891       0.84443126855327      -0.77346016297772
H         1.77438541406905       2.14555417953195      -0.32703615437175
H         1.57795899983112      -2.00529022580037       0.76322786292272
H         2.95193812534146       0.02043129145256       0.25763053483456
S        -0.91884653215234       0.99060384722454       3.14304911403187
O        -0.91069614695687      -0.39513986070732       2.67555851212988
O        -1.86654478028057       1.27799283226802       4.18452309884839
O        -0.88293278141258       1.96400224325700       2.05064191815216
C         0.75649579182387       1.17912807422866       3.91079549090543
F         1.69142849941396       1.04571051023903       2.95726321358342
F         0.98222024638335       0.24992726417909       4.82932324306819
F         0.91182029234939       2.37164307741026       4.46652340720617
