56
C16H34BF4N optimized with DFTB in AMS.
N         0.63021453779629       1.00741261648189       0.88726905428973
C         0.51476105863339       2.30658832957961       0.14360721885191
C         1.33488894604847       1.39789010578313       2.15545250062623
C        -0.72261266748448       0.46330575483741       1.23339092359844
C         1.45576338643751       0.04703755450280       0.08351376013355
C         0.25952750327821       3.37056075690038       1.20443680136861
C         0.81496583457168       2.78693789360030       2.51156655673069
C        -1.53233580028048      -0.05375402452062       0.04538435739513
C         1.70019478855849      -1.28880606198316       0.77911715888148
C        -2.94013963289891      -0.43765160826112       0.51672882213587
C         2.67428026805669      -2.14550568024314      -0.04381980183344
C        -3.77699389037006      -0.98465947426559      -0.64363136930362
C         4.10922011784750      -1.60829519213613      -0.00704972435672
C        -5.18439374640162      -1.37095433647864      -0.17789161354168
C         5.06340352454418      -2.53766669291470      -0.76266004252893
C        -6.01873004116056      -1.92508010482337      -1.33129518204017
C         6.49124080340409      -1.99462159993602      -0.73987164585653
H         1.47299312946848       2.48198516798473      -0.34913723629380
H        -0.27306076946440       2.23650583721491      -0.60549757641727
H         1.13959303153370       0.65394055802937       2.92813216325620
H         2.40341513369122       1.43217182206835       1.93592382940004
H        -0.57486017177221      -0.34428117049779       1.95466054222495
H        -1.26840457494597       1.26884280450771       1.73094008018791
H         0.95022424870478      -0.09873751693589      -0.87361344630043
H         2.40690250285420       0.54868763030174      -0.10222368410500
H         0.78958867055092       4.28394290221954       0.93181222589679
H        -0.80575298289371       3.59653066911304       1.29529742488359
H         0.04019034074190       2.73701601169082       3.28035209889298
H         1.64121303259312       3.39364616221338       2.88441886477038
H        -1.60964275591057       0.71014418223639      -0.73248161003065
H        -1.05016173722140      -0.93237647256080      -0.39015534079907
H         2.12172793397224      -1.12247269089662       1.77395340995684
H         0.76046708248848      -1.83746961547362       0.89583076609224
H        -2.86575223232214      -1.19476519810457       1.30468926824453
H        -3.43426386186887       0.44191968375414       0.94313921623978
H         2.32250399922212      -2.20097822161463      -1.07989696119048
H         2.65889708885092      -3.16112305375758       0.36578517254888
H        -3.84678334164091      -0.22578765777357      -1.43033678142505
H        -3.27811791894015      -1.86195097874939      -1.06928205596364
H         4.15046718994148      -0.61178503189016      -0.45338173754339
H         4.43417351388254      -1.51504943516436       1.03422872381620
H        -5.68238165510616      -0.49063598940806       0.24239283545836
H        -5.11134647356465      -2.12387480751490       0.61419665684419
H         5.04341169850744      -3.53494186191255      -0.30826076716034
H         4.72822188852561      -2.63739421053218      -1.80112728982217
H        -6.12452408160625      -1.17865876535378      -2.11965472855037
H        -7.01223261207311      -2.19798494479219      -0.97538705243405
H        -5.54504386239665      -2.81199966251878      -1.75423817601872
H         6.84937656905436      -1.90686160584566       0.28665031979705
H         7.15627199011599      -2.66544835031270      -1.28474451546862
H         6.53075908041117      -1.00966260728559      -1.20570193026752
B         4.00339759869096       2.50516223262925       0.21541420475032
F         4.12800389518095       1.30224782800038       0.96469396839891
F         5.21246119472106       3.08819501909907      -0.00952731061267
F         3.12764369564273       3.35352894981872       0.93757822305237
F         3.34523092960043       2.16099668479079      -0.99457224595978
