39
C11H21BF4N2 optimized with DFTB in AMS.
N        -0.50449954571080       1.15242249756441       0.10295013070256
N        -0.71909914954745      -0.85379545311010       0.85920277039148
C         1.13693099965165       2.65571005307722      -0.97178140597538
C         1.97519260876095       1.57098393312177      -1.67007753057867
C        -0.33893888002499       2.27514406902532      -0.80990946393716
C         2.72129957357719       0.66198272582857      -0.68708003140292
C         3.53471078736360      -0.39735598203890      -1.43853106675578
C        -0.67079098998810      -0.12418913728985      -0.25212019483853
C        -0.42344699558122       1.22885946823448       1.46752368119370
C        -0.55501688953636      -0.03822541726792       1.94133461579617
C        -0.83005780827050      -2.31195851768561       0.89165524426924
C         4.32860159866187      -1.27444535046388      -0.47269763575499
C        -1.80585010767470      -2.76572538083615       1.96679182320171
H         1.15664251163565       3.57327255357408      -1.56703186023701
H         1.55888975409564       2.88636437975777       0.01026692471772
H         2.70811001294821       2.06534364724923      -2.31622228560734
H         1.32773327934814       0.96848430206740      -2.31804111351355
H        -0.90139597479473       3.12008808664826      -0.40176548111383
H        -0.77342102081413       1.99294228851021      -1.77306755890723
H         2.01693134750985       0.16974417220077      -0.01198556469539
H         3.39285252628162       1.27160296585634      -0.07408215752893
H         4.22007148647089       0.09814041813594      -2.13660833578177
H         2.85464331837151      -1.02320851721479      -2.02846530281377
H        -0.76376704080702      -0.49194711554253      -1.25916074233141
H        -0.26708938703666       2.16141093420228       1.97967241541435
H        -0.50151957440417      -0.42247294472116       2.94431646779862
H        -1.15427690607204      -2.63517510363115      -0.10168225079766
H         0.17143923176262      -2.70832364928920       1.09504409159682
H         3.65692424101648      -1.78527684418147       0.21576742632046
H         5.02503303439576      -0.66736137388750       0.10686285658860
H         4.89548183027840      -2.02127759751001      -1.02944749067327
H        -1.38909726894629      -2.57212361236459       2.95386399375815
H        -1.96374447713775      -3.83837683397707       1.86263192588387
H        -2.76354654561233      -2.25366751953350       1.86899129253978
B         2.01941357538213      -1.76485270935207       2.61627996379991
F         0.80852307245408      -2.05569625204618       3.30140224065290
F         1.92511429543877      -0.43026428353167       2.14496968301332
F         2.07936130519729      -2.61190480834981       1.48513793262055
F         3.10563270505701      -1.92769848402894       3.42858371588468
