54
C14H20F18NP optimized with DFTB in AMS.
N         1.05687685336171      -0.34180867801007       0.34531975841152
C        -0.28037545349599       0.34295585055956       0.40607185735787
C         1.61497806898883      -0.34806752235071      -1.06042245719333
C         0.89274929905337      -1.76705970456598       0.80569870948887
C         2.01994444502064       0.41106174248751       1.22995204233878
C        -1.35333391933084      -0.24984289914612      -0.49583405242219
C         1.59042260974265       0.99537317270463      -1.77184313180194
C         2.18526814931331      -2.55958783976603       0.92504236499469
C         1.70041022714224       0.38936492086239       2.71571063785737
H        -0.61649257645231       0.29290613922473       1.44384439655306
H        -0.11230235642755       1.39081062419149       0.14938092240727
H         2.64680128158405      -0.69074783298326      -0.98094153893686
H         1.04644147029043      -1.08601173755087      -1.63100862267437
H         0.37835771679442      -1.73562795802171       1.76915877586178
H         0.23755063169105      -2.25774423837093       0.08274615889285
H         3.00539163020773      -0.01763168376805       1.05964474873986
H         2.03662847590498       1.44162226986973       0.87342797333501
H        -2.23452014562231       0.38696121939990      -0.41738728621646
H        -1.04508591505188      -0.27551036432298      -1.53860968701839
H        -1.63339579588372      -1.25460256520855      -0.18431643986105
H         2.14184720579484       0.86897773981816      -2.70326613529145
H         0.57912545946347       1.31942770155543      -2.01195329357508
H         2.09030677009934       1.76875202759701      -1.19378397627740
H         1.92327498056514      -3.55873437046747       1.27317385357774
H         2.68553065637490      -2.65632187541346      -0.03553813255176
H         2.87736750254433      -2.11842742347850       1.63847867396295
H         2.48488250591308       0.96058749497358       3.21188178288254
H         0.74421055383772       0.85853874059612       2.94283752478015
H         1.70994188871863      -0.61964732687177       3.12330853799440
P         5.89321376344431       0.76821675290542      -0.79919459845210
F         5.93274052488101       2.20402768675671      -1.65258582574870
F         4.20358271831320       1.00934788813058      -0.52887119336210
F         7.51596798502113       0.47354502110382      -1.03298374008896
C         5.50571734646988      -0.12746391042431      -2.49941237726620
C         6.33934980870733       1.85900311098758       0.76755632656934
C         5.64506174444022      -0.93645259107746       0.24658208298714
C         5.85514219434204       0.61798251103099      -3.81549175708248
C         5.22229274782189       2.73229275809700       1.39606436743181
C         6.79801124671942      -1.90827740764908       0.60927566431988
F         4.18944073367070      -0.43993645723527      -2.61682411882885
F         6.18061900914482      -1.28861563308675      -2.52335113923611
F         7.31894054979861       2.70388103141658       0.41313113719144
F         6.82648919356702       1.09086364697165       1.75957243141120
F         4.72662448962688      -1.69015233332277      -0.41575221373111
F         5.04194595194386      -0.61881928247481       1.42260441860132
F         5.75734629460704      -0.22546418275873      -4.84811380650721
F         7.08509610676978       1.10980404349085      -3.80627177234581
F         4.99358551797311       1.61197163798624      -4.03291053946964
F         5.71969877495975       3.53861248871730       2.33147717067418
F         4.60648057898296       3.48589500004243       0.49116946075118
F         4.28727510634071       1.97013227747841       1.98905605572706
F         6.31459243061292      -2.90723641995270       1.36081203857306
F         7.75397789760262      -1.30472431842266       1.30245798845060
F         7.34004641429640      -2.44553875045481      -0.47617915628531
