16
C6H8ClN optimized with ADF in AMS.
N        -0.50942831138121      -0.01318187919845      -0.27916729890068
C         0.14354958283796       1.17691889080227      -0.05809003509112
C         0.10765886945457      -1.18319304890878       0.09626594807670
C        -1.82181221252401      -0.03706192053041      -0.90830907858043
C         1.39913648137953       1.22340120346345       0.45212044528366
C         1.35962437134638      -1.20078712712645       0.61678013678019
C         2.16892901754688       0.00718478727923       0.66126658808137
H        -0.42767696026194       2.07500991352068      -0.28899970936008
H        -0.48873095411201      -2.08636332318114      -0.02472759551443
H        -2.39672571880082      -0.88947251977107      -0.52282899358804
H        -2.36398140458353       0.88450474610847      -0.65878074733289
H        -1.73741480811164      -0.12255863055970      -2.00298556218028
H         1.86276305941207       2.19231583090781       0.63592040034497
H         1.79062559527381      -2.15005416124814       0.93356833488465
H         2.91411665478602       0.04975485313640       1.46014365877615
Cl        3.54495276273793      -0.12161050829415      -0.86608323437973
