48
C12H22F6N2O4S2 optimized with DFTB in AMS.
N        -1.14001811851353       0.20414673774719      -0.06870899696495
C        -2.22039090715704      -0.00988408961486      -1.09447829261154
C        -1.82033282628068       0.91709591437029       1.08550256764975
C        -0.06411943415128       1.05702324145210      -0.69614234680127
C        -3.17038942355564       1.16228337516983      -0.90751870430608
C        -3.20813816664699       1.34201503816992       0.60638488661203
C        -0.58990392536237      -1.10101851963602       0.41816133430543
C         1.09071546394196       1.42860350862844       0.22921051477085
C         0.09114940859284      -1.93240281563784      -0.65950633454259
C         1.96417099691036       2.48036187771823      -0.46925120659758
C         3.09752344753540       2.94294526703101       0.44142872293526
H        -2.72048477566760      -0.95486775819445      -0.86739672298390
H        -1.77741283439944      -0.06051765294968      -2.08851658220055
H        -1.87535895569377       0.23258238896219       1.93288746740020
H        -1.21713883255652       1.77794719578067       1.36526834442544
H         0.31069684539775       0.51113014110792      -1.56443957840541
H        -0.55711786643688       1.96106784850478      -1.05025128694975
H        -2.77911359988543       2.05939966444239      -1.38888040669237
H        -4.15282514581469       0.93711147141343      -1.32324396279277
H        -3.97375090402786       0.70143804944055       1.05136421029165
H        -3.40943723336461       2.37848805455583       0.88100635001749
H         0.11500405878442      -0.87473620134546       1.22123959245293
H        -1.42992696230189      -1.65968741790942       0.83930518483920
H         0.71644489025146       1.85158655627957       1.16432427633736
H         1.69203221995921       0.54624918826743       0.47084118945955
H         0.33904428821844      -2.90139048673352      -0.22689010082128
H         1.01342209387755      -1.46826741082196      -1.00336549325375
H        -0.56515332467570      -2.09497029218031      -1.51269540228093
H         2.37572678574427       2.05738253969046      -1.39147791294112
H         1.34307591180943       3.33929350545307      -0.73673480536093
H         3.73627221850771       2.10457654750122       0.72507441328252
H         2.69453777331004       3.39819075815204       1.34672770570580
H         3.70397983526267       3.68428026177056      -0.07786641301616
N        -1.83139037377832       5.98371046597037      -0.63939982447960
S        -0.90663255224903       5.72419182978662      -1.93416014653079
S        -1.74973550430114       4.87863199685223       0.49936289580924
C        -1.79381754052437       4.37446585724874      -2.91061703645514
C        -0.41241031172988       5.35384509745613       1.72524870479539
O        -1.00698803494245       6.88662891683253      -2.76705568235152
O         0.40082366504491       5.16655808582113      -1.67769956146154
O        -1.30166433576764       3.55873064383208       0.05427884431623
O        -2.95671945336381       4.90902163418035       1.28614823571889
F        -1.12650036892171       3.21801033842845      -2.83910913379508
F        -1.89036658919973       4.71295887120028      -4.18332892858668
F        -3.01657700826053       4.15981780184671      -2.43604770229869
F        -0.28924646760645       4.34498519841884       2.58889937160790
F        -0.74153233734928       6.44585443128280       2.39061720254720
F         0.75558996183785       5.53958550135713       1.13748311030165
