37
C11H24ClN optimized with ADF in AMS.
N         2.06260187588704       0.65888929674854       0.33648165012842
C         2.43512103063928      -0.59405612938393       1.11705569207634
C         3.26510234734796       0.81870229308050      -0.58113057880648
C         0.81219873659454       0.45396185103963      -0.48292108673027
C         3.14494377008008      -1.50872173285732       0.11409404847813
C         3.57458503207624      -0.59173516569571      -1.06297221461787
C         1.94844868508740       1.83916015253508       1.25112298356552
C        -0.47829306536421       0.37859010326180       0.31746816205570
C        -1.64889544194318      -0.03225454192265      -0.57762574104462
C        -2.97241135234376      -0.09367058176943       0.18187763957460
C        -4.14789567084061      -0.51353428045557      -0.69755757634799
C        -5.46305512149960      -0.58108646370124       0.07238649222471
H         1.53215413734168      -1.01240728478737       1.57938301418100
H         3.16918371376990      -0.23571587138423       1.87138508145554
H         4.07857744468665       1.16804262362529       0.09405085721243
H         3.02362648122837       1.55213523969816      -1.36348416932243
H         0.96027063249900      -0.47451197515509      -1.05514819471803
H         0.77045399713555       1.29211750483093      -1.19786340419984
H         2.50592305052879      -2.33466569059715      -0.23408230971662
H         4.02771061133710      -1.93784651164837       0.61175944988681
H         4.65243412248767      -0.67646797026915      -1.26591879345712
H         3.03365929629949      -0.84715469651060      -1.98818564727283
H         1.17801580043977       1.62963198076479       2.00196121907121
H         2.94356134085301       1.95172907666766       1.73353004312966
H         1.67564894401960       2.71771061771517       0.65043614818214
H        -0.38228793656071      -0.35311858838833       1.13749721992860
H        -0.70095037647168       1.35520734819796       0.77809029964400
H        -1.43939844632759      -1.02137969572553      -1.02578906398502
H        -1.74250001605353       0.68012527690751      -1.41873105456936
H        -3.18425950036751       0.89555192805813       0.62961281867291
H        -2.87538914123243      -0.80225653958611       1.02620085754883
H        -4.24420425117922       0.19791297156431      -1.53810576457847
H        -3.92936839541013      -1.49937950443338      -1.14721604115587
H        -5.71528278134310       0.39938906735680       0.50676393618380
H        -6.29396488825915      -0.88618325139716      -0.58054152026755
H        -5.39737692529590      -1.30660618096912       0.89894935117080
Cl        5.04842411855315       1.04696903048517       2.15563195011925
