45
C11H20F6N2O4S2 optimized with ADF in AMS.
N        -1.46675485337275       0.54806707459381       0.34886764362358
C        -2.58241952525021       1.58044829999871       0.24989748711647
C        -1.99118629924139      -0.69182028292192       1.05916761472959
C        -1.06391953776883       0.21833629149057      -1.08724664185062
C        -3.20810831992990       1.92317146569596       1.58839916696279
C        -2.65271958393338      -0.37808136989086       2.39266836622457
C        -3.76378613783983       0.66014703434498       2.24520691916356
C        -0.29104228378916       1.10630231073979       1.07914000504271
C        -0.16849513742459      -0.98970115139386      -1.28053228720651
C         0.08781603923927      -1.15546246751421      -2.78204844750580
H        -3.34361659175807       1.12436179931584      -0.39776003712281
H        -2.15382341037112       2.45283797646846      -0.26492421887580
H        -1.13370274678934      -1.36698701411978       1.18392557521026
H        -2.70175453664245      -1.16138932563880       0.36322465595770
H        -0.59082048624795       1.13581101748003      -1.47370020061402
H        -1.99700219600042       0.06238723814964      -1.64614482862089
H        -4.01605430694019       2.64426754863367       1.38128527876868
H        -2.49271644142772       2.43761711784226       2.25359105385844
H        -1.90898004119737      -0.04580757125712       3.13882925803887
H        -3.06047503246973      -1.33153015605716       2.76800335786704
H        -4.20428527884169       0.89367499147390       3.22696888774130
H        -4.56445029478857       0.24814664368680       1.60605589123074
H         0.51169126165893       0.35938538023763       1.07508411615385
H         0.04014837411954       2.01775483956859       0.56571098201067
H        -0.57036174614923       1.34086706618205       2.11068311900242
H         0.78877585228661      -0.88576163635808      -0.74078138968913
H        -0.68176452757734      -1.89279517991617      -0.91783750778322
H        -0.86687483636981      -1.27579023620087      -3.31689392873724
H         0.61091602909374      -0.28191444929632      -3.20095892322374
H         0.70563553353390      -2.04560336386864      -2.96796977738044
N        -3.68408151532600      -0.57740809207243      -3.08890162443955
S        -4.45066170246312       0.49179472797677      -4.04227568584562
S        -4.39487415322483      -1.34353523420149      -1.86722200468446
C        -4.11926526060427       2.17184266677183      -3.24244453914363
C        -5.73873595220970      -2.51052753030011      -2.55139027303316
O        -3.68866668714942       0.59314320310114      -5.27546985342599
O        -5.90144947742220       0.37296104517264      -4.04257263896825
O        -5.09324987457349      -0.48947728156585      -0.89819059455813
O        -3.38017872143196      -2.26831139764949      -1.34504107826879
F        -4.53801028261469       3.14565650908628      -4.07842853860914
F        -2.78338431340114       2.35477234849744      -3.01305258728530
F        -4.76288694825280       2.32268849256432      -2.05653731810250
F        -5.80496524923639      -3.58650985732580      -1.72889706439412
F        -5.41336551765414      -2.92934623662890      -3.79150330983147
F        -6.94438805994681      -1.91986147769525      -2.57586733390287
