51
C13H24F6N2O4S2 optimized with ADF in AMS.
N         0.65389355988256       0.03075486664691      -0.09335232921777
C         0.52628068710466       0.98091870737868       1.09285780945359
C        -0.71073884739014      -0.10707365912424      -0.74080011663790
C         1.17954379219969      -1.31037268288469       0.39576189994967
C         1.58711093148271       0.63067235679571      -1.12698164348188
C        -0.52086192148488       0.52847754192614       2.09369227300934
C        -1.78475531029993      -0.58046655487788       0.22439650691298
C        -1.88747405422020       0.34701049392374       1.43637414132940
C         1.48742971633484      -2.32420986322714      -0.69381487535091
C         3.02565240603779       0.82760485405749      -0.68127452657560
C         1.68041657052106      -3.70589115239460      -0.06372868964421
C         3.85072701438860       1.38868774123154      -1.83815770437110
H         1.51438472871926       1.04655292866994       1.56200009654560
H         0.25878350499143       1.95727715939991       0.65396194780412
H        -0.95584503087020       0.89753721154454      -1.12248671676672
H        -0.59962444639904      -0.78182141473204      -1.60042636714680
H         2.06054480109147      -1.08883583743815       1.01166739880704
H         0.42792640631150      -1.70815740093195       1.08338217145490
H         1.53741676525556      -0.03325071581448      -2.00423264283228
H         1.13541525973810       1.59500044904498      -1.41159854966052
H        -0.18632850169824      -0.39035566091649       2.60149505148815
H        -0.54985189372469       1.29838262498725       2.88105266059237
H        -2.73479279034905      -0.60648728290696      -0.33520350428420
H        -1.58469855318513      -1.61630075997841       0.54397088955563
H        -2.61342198456573      -0.05519442534470       2.16009826667179
H        -2.27146922451811       1.32982395869712       1.10399234853387
H         0.66818513142658      -2.37947659535809      -1.43121264098090
H         2.39971523734206      -2.03791847680316      -1.24289058766595
H         3.07949518987869       1.50682163449504       0.18129367399096
H         3.46381453844986      -0.12297252963313      -0.34243449323198
H         1.93772484670103      -4.44798349156950      -0.83328501123807
H         0.76022161615222      -4.03834252592827       0.44072666560014
H         2.48157099804309      -3.69092109403473       0.68747585555924
H         4.88902947901448       1.55099433756144      -1.51521432540149
H         3.45194252302703       2.35439433574900      -2.18677752091603
H         3.86721642976523       0.69697642056037      -2.69529732284231
N         3.26609148342068      -0.76076761633835       4.68013069214050
S         2.67852884499187      -2.17654695645016       4.22474116112070
S         3.12834477867313       0.55924010852813       3.78814830126307
C         4.09890882387194      -2.97026218113729       3.25941307440638
C         4.53552430241866       1.52668880301778       4.57675433289608
O         2.54975625371896      -3.03342343387341       5.38917601273557
O         1.59093581653381      -2.10661601611331       3.24074756161998
O         1.92653501682172       1.35054941170868       4.06116187412049
O         3.51326193737626       0.41761878064969       2.37225882434258
F         3.81306145443244      -4.27875492343906       3.02600687599434
F         5.25500712118927      -2.89900214404777       3.94973812707675
F         4.28393066685982      -2.36966230145787       2.05102873608230
F         4.63827017906698       2.71329350500394       3.92199486928770
F         5.70905990139898       0.87004359196590       4.46090616429259
F         4.29272289317133       1.77510726071191       5.87957062530878
