38
C12H22N2O2 optimized with ForceField in AMS.
N         0.36822548914863      -1.61510630975225       0.31050060643231
N        -1.75587400290807      -0.96077058207065       0.26579856503759
C         1.76758190671288      -1.72445653437954       0.71706846396943
C         2.64767852471971      -0.74316682259108      -0.06914684805102
C        -2.99148194132243      -0.26541195895757       0.62092308026841
C        -0.61399250193170      -0.98147108974993       0.97914744943074
C         2.25212410072780       0.71694931506406       0.19564589706355
C        -0.17204258762316      -2.01727923199510      -0.85762440240349
C        -1.49142724970168      -1.61387354784628      -0.88417155668884
C        -3.21367727895706       0.95963445079541      -0.27617399415847
C         3.20276147341530       1.68620880951181      -0.49965763585296
C        -2.07838459547645       1.97647273264471      -0.15552983800383
H         1.86487711331352      -1.51747056624841       1.80576305779058
H         2.12006393568324      -2.76364820615986       0.54182588499105
H         2.56901066256935      -0.96172937132778      -1.15661486756950
H         3.70503831984003      -0.89966115286621       0.23691697081157
H        -2.95437651425047       0.05938866440438       1.68448915921972
H        -3.84833947205382      -0.96433634647327       0.51300422153171
H        -0.48231496373618      -0.49058004443059       1.93383338828786
H         1.22478538286220       0.90171379091496      -0.18314738556489
H         2.26528158408166       0.91952591721459       1.28881553407078
H         0.36081696959279      -2.53497038678286      -1.64449486010596
H        -2.19308763331649      -1.75464738869896      -1.69585855229020
H        -3.30939012108276       0.63972270047604      -1.33626953571960
H        -4.16626025875408       1.44949557444331       0.01919809747996
H         3.20011793360338       1.50993608235913      -1.59640318895322
H         4.23484490206585       1.56192206641476      -0.10889592390719
H         2.87427467899743       2.72964058980227      -0.30790430761110
H        -1.13705698991634       1.55515981520899      -0.56580835565704
H        -1.92069527433638       2.26033979537154       0.90677890367696
H        -2.33095074113506       2.88904371266314      -0.73523865575555
C        -2.57953560448628       0.16941566188184       5.31841206342333
C        -1.17447095889909      -0.15695213674520       4.92270815286557
O        -0.48970208553667       0.67717895023650       4.35272267091295
O        -0.71177137126442      -1.26125379594882       5.15974305998468
H        -2.67275544469966       1.25364462897306       5.54070978072653
H        -3.26777568341120      -0.09308432899816       4.48827404597137
H        -2.86609651063429      -0.40379056945796       6.22571864754618
