55
C15H20F18NP optimized with ADF in AMS.
N         2.02234711537065       0.07299307139410       0.66121144322902
C         0.71597725439149      -0.65655566450255       0.89102939485801
C         2.80078530441314      -0.26476255605244       1.92488058825613
C         1.11769294871671      -2.00196260918565       1.48449005092782
C         2.44401741249357      -1.72094244132306       2.23808565223467
C         2.76452973203033      -0.48494893539010      -0.54746777248764
C         1.77785147023435       1.56251463376822       0.53362495765584
C         2.06486296743967      -0.27698243630626      -1.87968198132836
C         3.03328562189306       2.38919470228118       0.36089770566003
C         2.89472413687187      -0.88975422339507      -3.01015155228409
H         0.14560177446539      -0.70501745615489      -0.04385567799147
H         0.15683432814145      -0.04966980699581       1.61968960441909
H         2.43020149756802       0.42328130706876       2.69964335306684
H         3.86658484524205      -0.08282506837667       1.75620055230805
H         1.26381270041011      -2.75284207006453       0.69428219289378
H         0.32407903767280      -2.37804804606968       2.14575224101675
H         2.33776665304952      -1.84951258406818       3.32420986603753
H         3.24185669958261      -2.39828809203257       1.90718913890355
H         2.91398748082026      -1.55465419576475      -0.34645511069783
H         3.75647299420305      -0.01906622318843      -0.53718069988042
H         1.08406233518147       1.68890010953496      -0.31028220140886
H         1.24172594872100       1.84519019346084       1.45302209856943
H         1.06314610375636      -0.73949577349488      -1.87510271992687
H         1.92935439393635       0.79791423216204      -2.08126218442414
H         3.72389226218330       2.27915840795570       1.20586816376405
H         3.58427097578189       2.14644613140645      -0.55636016776389
H         2.73533428472983       3.44690698342233       0.30360255520338
H         3.86800244501870      -0.38977062055996      -3.09889394476289
H         3.08229714463255      -1.95960566847514      -2.83183672633928
H         2.36174988371445      -0.79104870127377      -3.96668410953815
P         7.19450791563261       0.61194483120603       0.25423728345669
F         6.98383402526205       2.22544405947662      -0.10371491485146
F         8.77530863569651       0.67533624400347      -0.21608213817078
F         5.55011292329811       0.45124389707191       0.72615258913383
C         7.60720561728697       1.28368696138380       2.08439061510040
C         6.52004256398820       0.29965924355455      -1.59679532352446
C         7.53573406663856      -1.33547216278373       0.64594549012879
C         6.51945911370996       2.12721060206998       2.84223896748302
C         7.49547673861368       0.46408083566565      -2.79378425451644
C         6.44778461568804      -2.20302344326119       1.34422819717581
F         8.70288418845602       2.10732866564133       1.99245970683800
F         7.91618704558142       0.30597222262543       3.00792109638141
F         5.50066514817032       1.21613652154471      -1.85628715162058
F         5.91874164112519      -0.93448976195350      -1.74975190069795
F         8.66125459792629      -1.45911019425198       1.42364610640811
F         7.82817748587643      -2.00753413110087      -0.52346081127823
F         7.08313924940544       2.66453093707491       3.95790325029585
F         5.48413761793054       1.33802386359396       3.26230802870339
F         5.99262802590453       3.14452665982494       2.12579334373676
F         6.80162862682752       0.29134649016850      -3.96356776903845
F         8.03385862677499       1.70239421597337      -2.81531673465612
F         8.48525033704338      -0.45159629807556      -2.77208175807958
F         6.93163106318261      -3.44344018093111       1.61632706694187
F         5.35127635613461      -2.37114603160123       0.54549411816778
F         6.02324970588002      -1.66458034200018       2.51404147311225
