31
C9H16F3NO2 optimized with ADF in AMS.
N         0.39688730688667       0.50511055573953       0.00557852920411
C        -0.30519482611803      -0.82646774709189      -0.05574854326660
C        -0.52774929229659       1.33317511383377       0.88125364189639
C        -1.79486013632236      -0.48651783289277      -0.16512329764871
C        -1.93554626853852       0.93962737791189       0.43673478965219
C         1.77015684729109       0.43374613876355       0.65160853380322
C         0.48134138358114       1.13346502899840      -1.35660406857845
C         2.79020206597592      -0.36730225601411      -0.12812557307708
H        -0.07655424980780      -1.34011113955810       0.89031227634809
H         0.09299958151105      -1.41356917714348      -0.89241960212595
H        -0.23716367943666       2.38903015697712       0.77251425413891
H        -0.32969589094145       1.00718517295673       1.91360232962213
H        -2.39223761763907      -1.23282730238004       0.37785420471988
H        -2.12751705264549      -0.50682883715977      -1.21308188582735
H        -2.32703475244883       1.64500314920974      -0.31044304603290
H        -2.62509916588844       0.96251794307947       1.29244860228807
H         2.07032600298239       1.49400028385730       0.74693942710214
H         1.59196278769751      -0.00031409100267       1.64811374727090
H         1.08716617109982       0.49003670997581      -2.00388103366166
H        -0.53260251826691       1.22501774411558      -1.76322961891177
H         0.95091081477497       2.12154025335527      -1.20966463001946
H         3.70902698027149      -0.40374444167858       0.47624997379961
H         2.47536921402467      -1.40419426661856      -0.32223224606711
H         3.06313427865840       0.12711467159662      -1.06965936176728
C         2.56082024314343       4.16397169570094      -0.09333084240644
O         1.59875800649532       3.38139003304842       0.19714598214346
O         2.68358975284449       5.38616370207111       0.00949517081965
C         3.80409736406804       3.38769964622274      -0.67654216704156
F         4.82140689065180       4.18305839963813      -1.07915749123966
F         3.46400034285779       2.60400073257001      -1.77267497581875
F         4.33052190033417       2.50713648311785       0.25391153938196
