41
C13H24N2O2 optimized with ADF in AMS.
N        -0.72872481573106       1.51138718790908      -0.09979268529021
N        -1.70514247796545      -0.09404825299489       0.99676807710337
C         1.56352105745257       2.11072527361341      -0.80182479112580
C         2.11415445053026       0.70803692926115      -1.04138294713555
C         0.06896122601339       2.22189563729447      -1.10451886969560
C         3.50364284183325       0.50187881927261      -0.44331637613128
C         3.94461676785504      -0.95776873773480      -0.52194746134434
C        -1.12786880429003       0.23368961375552      -0.16410514342886
C        -1.00689200636714       1.98989458825588       1.16731788163008
C        -1.60271162504518       0.97547622567031       1.85896236277908
C        -2.01156133346711      -1.45867144306415       1.43677137667267
C         5.30084640980784      -1.20252782108744       0.13352971032392
C        -3.45836433043340      -1.61799062477467       1.86656795762333
H         2.09399040842161       2.85987795364228      -1.41604393023537
H         1.72360396708258       2.38595376491982       0.25589640562211
H         2.12464573627151       0.49234259183507      -2.12781536705214
H         1.45932396672707      -0.02050539520838      -0.53673637148446
H        -0.27547531012804       3.26757673887793      -1.10511051418421
H        -0.17432381396230       1.78893089045189      -2.08724640727772
H         3.45481256285583       0.78510407530478       0.62375318986496
H         4.24701425886573       1.16061306803962      -0.93246389421002
H         3.97227588150233      -1.28177202653761      -1.57965455006804
H         3.17180809524842      -1.55932294629432      -0.01119247835087
H        -0.99184824623778      -0.42610652948247      -1.00959445214209
H        -0.73607483722734       2.99353644956508       1.46919518843054
H        -1.89626017998398       0.89735709640450       2.89604581144738
H        -1.74558648708494      -2.13002242552872       0.60859161373648
H        -1.30249965873944      -1.60519074870511       2.28074179690495
H         5.27407254557305      -0.90283376984273       1.19387974396964
H         6.09771665259160      -0.62258113753774      -0.36123271221785
H         5.58144857512882      -2.26651796171287       0.09251319132690
H        -3.69717209387847      -0.94717601756886       2.70523320661715
H        -3.61415684738455      -2.64866033065790       2.21763164293929
H        -4.16034084338086      -1.41746029342958       1.04311913141848
C         2.32196205678005      -0.70442394776185       3.56351422671587
C         0.98460026298549      -0.67539431857355       2.80473965930641
O         1.05163321947238      -0.69394543481203       1.53826806707329
O        -0.07007079310544      -0.63218231522324       3.51548627592034
H         2.84075137239315       0.25873971358515       3.43009226524267
H         2.16738146385064      -0.87684704142319       4.63762720679448
H         2.97487465676987      -1.48516394490244       3.14580242991102
