37
C11H24ClN optimized with DFTB in AMS.
N        -0.29370973590654       0.27267353485751      -0.15282949866913
C        -1.03698514204474       1.24155261366955       0.72867991006231
C        -1.11358222088674       0.00733216438369      -1.38040616632553
C        -0.01081376439549      -0.98775674169011       0.61914888214454
C         0.97946273061896       0.93033946883711      -0.62218506716988
C        -2.43898420471696       0.76667725521981       1.08054200337165
C        -2.51570608859273      -0.50332198711362      -1.06860860380778
C        -3.26331768806223       0.48415587997959      -0.17355046177719
C         0.86118365358011      -2.01203729044489      -0.10002863540813
C         2.00726839876740       1.23686590810964       0.46571423427673
C         1.03625781163732      -3.22773330401070       0.81160762389729
C         3.21111485585861       1.93170479919342      -0.16756121839733
H        -0.45301062985975       1.35484690123287       1.64975118003430
H        -1.08168440141861       2.19254533295718       0.19090432414895
H        -1.18199029427344       0.95369781738967      -1.92510811518458
H        -0.57115758238729      -0.71033932870610      -1.99920092027238
H         0.45888198913808      -0.67438559824351       1.55964556825318
H        -0.97224577302578      -1.44133248730957       0.86209257171796
H         1.41770839235282       0.27341337428488      -1.37860185443885
H         0.68035973767409       1.85945018595160      -1.11676937215477
H        -2.39325801293985      -0.12172598420745       1.71451691050771
H        -2.91076759877547       1.56158815111845       1.66379896593398
H        -3.04059892690388      -0.61956221105575      -2.02077517084610
H        -2.47151684824073      -1.48626995412835      -0.59277633053452
H        -4.23449704347563       0.06717792548033       0.10274778618804
H        -3.43508718461327       1.41638960084951      -0.72199002948489
H         0.40271712030616      -2.32921614447194      -1.04223199609354
H         1.84634489514484      -1.59620812952626      -0.32451503602917
H         1.57673117369215       1.88255174987034       1.23183427447499
H         2.33642425633235       0.31938157483463       0.95563698426438
H         1.67097064149359      -3.96643949015604       0.32323466496266
H         0.07079295738786      -3.68527660919127       1.02964075235417
H         1.50182594869243      -2.93117216437940       1.75121943613497
H         3.94681564355479       2.15189118991842       0.60470142758453
H         2.91248792422307       2.86835951313091      -0.64063103729896
H         3.67645451562145       1.29311002868537      -0.92017044340843
Cl        0.67119771844305       0.55785537168046       3.35255788788881
