51
C15H29BF4N2 optimized with ForceField in AMS.
N         3.07414897702529       0.92403539823226      -0.00060935675107
N         2.92659820476611      -1.28897040695898       0.18579355228516
C         1.46518916130618       2.78326109346146      -0.25447123212040
C         2.83580147049486       2.33897177266166       0.28005502823809
C         1.00831903044278      -2.61462314734425       1.01517275328884
C         2.51115058718448      -2.59769173319590       0.69153029483687
C         0.31155461396618       2.07490329622228       0.47057519183951
C         0.14956639424440      -2.27552564645706      -0.21309833216523
C        -1.05139099319230       2.52534566280197      -0.06401335561293
C        -1.34217920996661      -2.27460478586858       0.13618403470832
C         2.82969701285153      -0.10886356282419       0.82983885240592
C         3.34511705145265       0.37962854585120      -1.20354127862185
C         3.26219094739888      -0.99280845434033      -1.08615714398923
C        -2.18631401243793       1.82238744047512       0.69024847140757
C        -2.18298444478462      -1.76872007256699      -1.04220523904153
C        -3.54462913889184       2.13699036136293       0.07174255906777
C        -3.66300720713977      -1.70344223702997      -0.67547549549855
H         1.36812327744614       3.88124667106564      -0.10850770486435
H         1.40817485698267       2.57751409390397      -1.34598779390255
H         0.80031801760727      -1.88748433411645       1.83011701939095
H         0.73452887613994      -3.62558790916886       1.38816219623323
H         3.63243386181476       2.94705661333031      -0.20031498767475
H         2.88998865358964       2.52258284710595       1.37575304180411
H         3.08840478124051      -2.83468041946053       1.61066867863213
H         2.73408898964688      -3.38639632142916      -0.06066696759052
H         0.37404340379964       2.28822626234545       1.56017798250339
H         0.39759725705887       0.97854238079141       0.32242130342745
H         0.34118981075888      -3.01904323302471      -1.01744455778278
H         0.42836042239249      -1.27046029169970      -0.59462533479205
H        -1.15660558029709       3.62590730360472       0.05715696090024
H        -1.11559565175424       2.27911784186659      -1.14736452862167
H        -1.51573466155045      -1.62124990307728       1.01943943947965
H        -1.65549394249343      -3.30848268192319       0.39636861513592
H         2.48849848940235       0.00086090838814       1.85191669284877
H         3.51972684395047       0.93980394630988      -2.11283013025395
H         3.35586568327959      -1.71400304570884      -1.88726503375544
H        -2.02964726268790       0.72472090682479       0.66537268585995
H        -2.18594839235700       2.14518827121578       1.75392971510089
H        -2.05411037464233      -2.44803192708144      -1.91253700821647
H        -1.84258391764218      -0.75280740902299      -1.34086342547478
H        -3.74416669149651       3.22847023298220       0.11534140903271
H        -3.57407715553339       1.79849596137200      -0.98595771605253
H        -4.34135526104887       1.60607626882704       0.63433319007285
H        -4.24326210879253      -1.30962924446223      -1.53631048741078
H        -3.81811035951957      -1.02904702061968       0.19310253821709
H        -4.04195051641781      -2.71604197323692      -0.42192316570930
B        -4.53804465839276      -4.49105947114638       2.62023732443072
F        -4.70406710496026      -4.73927719809305       4.00865174407291
F        -5.36041024290422      -3.40022111007007       2.23195944781581
F        -4.90784438259216      -5.64836843251114       1.88473846315072
F        -3.17919804834770      -4.17700583396387       2.35701134011519
