41
C11H21F6N2P optimized with ForceField in AMS.
N        -1.12724016933982      -1.73180244302535       0.22291344318139
N         1.09464438356034      -1.70467776161466       0.31777284894277
C        -2.52370124545890      -1.45867570124165       0.55722556032596
C         2.44937895297312      -1.39096664033722       0.76844950728278
C        -3.01787112774542      -0.18165751535476      -0.13594567941769
C         3.04200736238061      -0.22476563940017      -0.03511790863384
C        -0.04976090228574      -1.43893781104787       0.97648164331438
C        -0.64959444072399      -2.20550223333635      -0.94585394912200
C         0.72990992793443      -2.19238924323127      -0.88576918702081
C        -2.23726722327071       1.05863587113786       0.32351157922565
C         2.20299472750884       1.05236786819046       0.11662132028989
C        -2.80149650084649       2.33387931867762      -0.29205586769081
C         2.84320725656556       2.23327784530976      -0.60319126505745
H        -3.15220893694218      -2.31902402494089       0.24059945872952
H        -2.63708197780043      -1.35057770266545       1.65850373379327
H         2.44020327886280      -1.12428003578946       1.84827996181481
H         3.09020081311494      -2.29037193068913       0.65602806679648
H        -4.09490236807668      -0.04724367232257       0.10626049581060
H        -2.92493860625337      -0.29873263701045      -1.23771434665258
H         3.10457849204121      -0.50722658533537      -1.10858174975954
H         4.07492399289656      -0.03460800358635       0.33031653420876
H        -0.09752160759155      -0.97800587949701       1.95551452590109
H        -1.25709803929139      -2.50755079642467      -1.78931917950400
H         1.41415520982839      -2.48121348859014      -1.67348150582149
H        -2.27884468562923       1.14396372979142       1.43102759177675
H        -1.17451943708418       0.96733939676988       0.01704756467878
H         1.19379524493445       0.88916600724781      -0.31673377870666
H         2.08905444810988       1.30455915948684       1.19322596571708
H        -3.85442824527417       2.48361412753685       0.02796306663522
H        -2.75530720660991       2.28032920599692      -1.40048159647288
H        -2.19989526577314       3.20405753844312       0.04614329338436
H         2.94789916312175       2.01360462273688      -1.68687548428262
H         3.84222344967432       2.45354858404170      -0.17098861891888
H         2.19842983829876       3.12972966698972      -0.48384255765270
P         5.60320805711060      -2.57882614524108      -2.65623360497784
F         5.31146952532068      -4.17738943859627      -3.21219912781538
F         6.56129718566223      -2.29835523536174      -4.05394572819711
F         4.19000781958173      -2.02984516422432      -3.46372182284397
F         5.86515421532181      -0.97710586211737      -2.09342154615784
F         4.67458785427911      -2.95118284672457      -1.26281812344005
F         7.00511618731517      -3.09445207035069      -1.80845807136341
