30
C8H13F3N2O3S optimized with ADF in AMS.
N         2.05412562843909      -0.83702771049718      -1.28682143564482
N         0.23363006635995       0.18169815084384      -0.68242637465772
C         1.06577728382251      -0.82817943809090      -0.38749441852070
C         3.22158251397885      -1.74115690944323      -1.31377492304189
C        -0.91152848666399       0.61436582857698       0.12832092419682
C         1.86407470786667       0.20531824690583      -2.16691866639472
C         0.71770593337039       0.84118725393347      -1.79462735600762
C         3.28910819066542      -2.64305721025052      -0.10298187456583
C        -0.53818687549664       1.74091459189726       1.07848889179080
H         0.97168288614558      -1.49225450892074       0.45930368392085
H         3.15191746357411      -2.31260763269432      -2.25306877856408
H         4.09539686623059      -1.06993310034957      -1.34031745501873
H        -1.70102518009296       0.91781579113603      -0.57683137740072
H        -1.27648449180187      -0.27183916491254       0.66783438597263
H         2.58612834567477       0.42997264695168      -2.94058237537575
H         0.22238274699001       1.71335002057147      -2.20160281442157
H         3.42614085654989      -2.04288608617462       0.80891702008188
H         4.18005690874931      -3.27915942961405      -0.20317722112645
H         2.41309292985576      -3.30549842712609      -0.01735827472456
H         0.23011557829240       1.41383106111190       1.79152904710035
H        -1.43209437388057       2.06313382300041       1.63237532110704
H        -0.13513700474515       2.60356478237294       0.52962429779848
S         4.88359776404531       1.17906525841261       0.18029754680439
O         5.20480456201556      -0.16659583685700       0.69237264759422
O         4.22835409240011       1.17318262591695      -1.15013650217189
O         5.86434771807381       2.23793425437903       0.40370093332257
C         3.45208066080075       1.69164457293607       1.31756667218683
F         3.87056162606278       2.06252338656345       2.55096625964181
F         2.55822416913700       0.64670104469175       1.50745221712921
F         2.72287274538054       2.72546557912909       0.80101100888920
