61
C17H24F18NP optimized with ADF in AMS.
N         1.25456375740269      -1.13173774576823      -0.71676977168874
C         1.90379755761966      -2.46621772471622      -1.13625684175221
C        -0.22035798726540      -1.45956289039861      -0.47479469512515
C         1.88069226702234      -0.63363217185693       0.57570544075821
C         0.74861454542325      -3.42906365324686      -1.35364451679678
C        -0.27040203563471      -2.96946090225339      -0.31169155672271
C         1.41718980870367      -0.12264881518696      -1.83704214459998
C         3.32589771999117      -0.19215255053318       0.44272202878085
C         0.76153299578360       1.21356016166016      -1.56254644402611
C         3.99333343152462      -0.13461040894327       1.82065359233823
C         5.32297193426312       0.61575453393850       1.77274727830193
C         6.11685692391916       0.48778447216073       3.06786795844048
H         2.54049988872454      -2.29491670942831      -2.00836194509932
H         2.53874320721806      -2.78964689599178      -0.30343522839066
H        -0.58044508599379      -0.88064638680087       0.38433578355734
H        -0.77126467188805      -1.15411217334113      -1.37535529177290
H         1.24793404868586       0.19037950812291       0.93783044469192
H         1.78279446015484      -1.47131654977531       1.28474515065646
H         0.33444270530175      -3.32741721167034      -2.37066216567932
H         1.07712270858913      -4.46978304125153      -1.22634982594492
H         0.04666093792264      -3.26535504936662       0.70247335906814
H        -1.28492483558852      -3.35827283187861      -0.47749724495263
H         0.99299776266601      -0.60621999869054      -2.73099346525238
H         2.49656358501150      -0.01510595167230      -2.00212792596349
H         3.37128006993160       0.80602625432311      -0.02597609911843
H         3.90445354787476      -0.87066547603905      -0.20328228201136
H        -0.31850341002651       1.12867026610898      -1.37395163065665
H         1.23180067677321       1.74007106811417      -0.72048631135262
H         0.89209744261757       1.84548895987037      -2.45410399501322
H         4.16477478011421      -1.16841836391418       2.17343218525421
H         3.31912610851059       0.34630298991647       2.55632685542744
H         5.91866469178229       0.22759453084219       0.93288829502208
H         5.12337753113960       1.68111029208211       1.55193933429742
H         7.05894475305366       1.05246491879471       3.01145178782635
H         5.54403459857681       0.86273916934450       3.93219177514744
H         6.37375700678704      -0.56622335801367       3.26002826738395
P         6.92623182791171      -1.84598178477610      -2.31739144968050
F         7.45602755972473      -0.53666375834959      -3.18215707478126
F         7.61188731583103      -2.94706524317211      -3.34726698079980
F         6.16451443142894      -0.80014105379291      -1.23793407220799
C         8.66247731132683      -1.71942085284856      -1.40001245019514
C         5.31447351062624      -1.81318159615274      -3.59262974059802
C         6.09326710191031      -3.34172624985919      -1.21259817753072
C         8.95638206098888      -0.51823567183141      -0.45068801478360
C         4.62673552400113      -3.06924341040774      -4.23997487632387
C         6.40006341745415      -3.74117019758741       0.27257796357955
F         9.64422773233828      -1.65239727581682      -2.36041245645055
F         8.92796544489161      -2.85236676480236      -0.65570697300152
F         5.70266318021640      -1.11679331578510      -4.71251294227183
F         4.24817673284118      -1.07903285065652      -3.04579109136149
F         6.12926423983357      -4.52883674975113      -1.90226787162269
F         4.74507437718088      -2.96758295990300      -1.12375161918244
F        10.27155172376368      -0.53923411926778      -0.09012222510945
F         8.23166581667895      -0.58422489465538       0.69514331411007
F         8.70989155494979       0.67160237524725      -1.04158197956329
F         3.73265845340476      -2.63145456269099      -5.18474950575305
F         5.51915023232009      -3.86627872978416      -4.85189866596495
F         3.89797931225140      -3.82532308749198      -3.37294089923230
F         7.43735770622554      -4.59001829367424       0.38411678952256
F         5.30758485069107      -4.39788618330732       0.79394926456697
F         6.60850138881684      -2.65754813812376       1.05459617670245
