40
C12H25NO2 optimized with ForceField in AMS.
N        -0.89039841541462      -0.17624206669797       0.05515149854112
C        -2.03056986010574      -0.31689330173084      -0.90160725506709
C        -1.22232108766423       1.02744795324078       0.87902850143604
C         0.37735010613383       0.05459436485056      -0.71157846228022
C        -2.85827897265851       0.95196540761375      -0.84294929923439
C        -2.64391116638711       1.44972571787875       0.55860192690163
C        -0.80814132492925      -1.38233854611370       0.94109887746056
C         1.64369979862855       0.18296747923342       0.16948643481510
C        -0.44558471148313      -2.68751768112178       0.20911479687393
C         2.84568749529450       0.63830109578551      -0.66610973105675
C         4.09719887609881       0.77358251152228       0.19583403545619
H        -2.70919334138502      -1.15715679116454      -0.62610614656571
H        -1.70546552911983      -0.50828820045273      -1.94986093153378
H        -1.12005925294803       0.85304932954306       1.97478025831253
H        -0.56743032889998       1.89679717969412       0.63917250938128
H         0.54677943863194      -0.76681939826845      -1.44311489708788
H         0.27498378080964       0.98048760308581      -1.32488681264705
H        -2.46555908013733       1.69395280124971      -1.57297511188801
H        -3.93371661410175       0.75735484536243      -1.04747257461944
H        -3.35355982491745       0.94596263649168       1.25186467833219
H        -2.77557193699440       2.55196270517553       0.62430165090072
H        -0.06669032871964      -1.22557238836802       1.75520725990466
H        -1.78329463361366      -1.53968620111101       1.45743306610539
H         1.47923493920507       0.91243882196344       0.98995208725600
H         1.88997869211400      -0.79925158790377       0.62454453024229
H        -0.57326233720462      -3.54275963807234       0.90572267003503
H         0.61380727801842      -2.68146831453489      -0.11861842768490
H        -1.09755029581509      -2.85942465485758      -0.67115848758921
H         3.04212391414320      -0.10096597773023      -1.47359534696673
H         2.62648514822083       1.62273516615473      -1.13427614254112
H         4.36933312678301      -0.20808136016522       0.63944949517383
H         3.92864899672849       1.51055557994902       1.00997958375853
H         4.94006511443888       1.12825414069977      -0.43283563258211
C         9.82640725886904       0.12048548208526       0.18103547433721
C         8.49036918069742       0.77638017100410       0.32725258174805
O         7.51062959346160       0.28548260961339      -0.20868709945187
O         8.37455843539052       1.80074095729002       0.98116543530704
H         9.78512943081988      -0.90504319024195       0.60492150370582
H        10.09562784336068       0.06066603909961      -0.89467585862734
H        10.60907045505106       0.69969992254829       0.71637144143845
