40
C12H22F3NO2 optimized with DFTB in AMS.
N        -0.50945172145900       0.00985027644643      -0.33004298615138
C         0.03897111758227      -1.37674150940896      -0.19904895247076
C        -1.87037428418763      -0.09108597980538       0.28940848466897
C         0.30124910918564       1.03994406606325       0.40682305426246
C        -1.14666330571478      -2.30122990293105      -0.44553543056599
C        -2.39517262241569      -1.47082237174474      -0.10732298896279
C        -0.64826067890857       0.37911249862496      -1.76554008216094
C         1.74370970173327       1.23653011368670      -0.07373824187933
C         2.76481743336237       0.34271285641691       0.63837476467925
C         4.19037103169410       0.72403966150095       0.21982754862744
C         5.20400252949641      -0.29455951212531       0.73585030512992
H         0.42704297884524      -1.48863664581380       0.81434938783255
H         0.83943530694642      -1.50748755534571      -0.92749725282272
H        -2.49127251183888       0.73355024094151      -0.06225613612029
H        -1.74994291058703      -0.01618183962092       1.37235890582431
H         0.29309786542787       0.75011731196447       1.46184270947548
H        -0.25542243764779       1.97613086404426       0.30451002530467
H        -1.06937721274954      -3.18735741660254       0.18589107570411
H        -1.16642632748911      -2.62983216116272      -1.48636665855920
H        -3.06266846034120      -1.39998283453102      -0.96831121731155
H        -2.95672723102158      -1.90664099268283       0.72077274909903
H         0.32130764954495       0.29171285000297      -2.25229580637305
H        -1.34835729275232      -0.30382713899614      -2.23983445253313
H        -1.01963983208478       1.40009388878662      -1.83327684148795
H         1.82338692450233       1.08254521813899      -1.15079632482113
H         1.99301670036763       2.28396888800832       0.12624148262099
H         2.58785824692998      -0.70395896767396       0.38110624472068
H         2.65327829045338       0.44563831216396       1.72413801782273
H         4.42809994664337       1.72188135326747       0.60492855431072
H         4.24838604697316       0.75557585786828      -0.87223936034353
H         5.13028453728884      -0.40261337492748       1.81954941575012
H         6.21380941536178       0.02945570546968       0.48437079578300
H         5.02623849531729      -1.26372993229504       0.26939600132011
C         3.07061642420201      -1.48183144537350      -2.23369480987298
O         2.03991420913177      -0.80971955426205      -2.38748807227145
O         4.25201176439663      -1.22035017557306      -2.30037967286889
C         2.71333543502508      -2.99903636405875      -1.74979525215856
F         1.49756218528164      -3.40047220172075      -2.19371879968522
F         2.60980576778467      -3.00894981867602      -0.38776947300619
F         3.58718206791985      -3.95052505696393      -2.07722404310948
