35
C11H17F3N2O2 optimized with ADF in AMS.
N         1.46213598369040       0.59850900470058       0.29239906034129
N        -0.10060144634626       0.36073968631430      -1.19926423047797
C         2.52784052072693       0.30706152503695       1.26166764833517
C        -1.02308587590511      -0.27483139538802      -2.14684835102416
C         0.72865782440330      -0.29827893597484      -0.38249481188487
C         3.90906029382810       0.20544369702666       0.61365474961245
C        -2.42602510239603      -0.43691864562552      -1.56830446176627
C         1.11772464954234       1.86737452786330      -0.14700868141664
C         0.13923908227511       1.71147664471866      -1.08152333681404
C         4.16036169780257      -1.12938821363269      -0.08034992351329
C        -2.48374969349534      -1.36193564409301      -0.35561965582569
H         2.25736039940446      -0.63042880728619       1.77256086785229
H         2.48725822731874       1.11517726722753       2.00810547156572
H        -0.55326490850259      -1.23369916947527      -2.41486480149212
H        -0.98436857434116       0.33770261660812      -3.05758420826638
H         0.81094050692136      -1.37291020202797      -0.30400750380777
H         4.02049877618583       1.03269356434619      -0.10688482957690
H         4.65306247035722       0.37228389190600       1.41170002084988
H        -2.84185725172253       0.55396612704128      -1.31324520828229
H        -3.05716640790265      -0.83921092523091      -2.37934779899908
H         1.62003454629503       2.75271058335136       0.22055575860635
H        -0.36545571615534       2.43357911142856      -1.70978407348303
H         3.43806377865087      -1.31364580369796      -0.89252814304842
H         4.11882396115252      -1.95941861965894       0.64538957030445
H         5.15834376092911      -1.13538811118877      -0.54309064220447
H        -1.88853405863331      -0.96463585299956       0.48178184747693
H        -2.09664299684704      -2.36214002962739      -0.60812003095082
H        -3.51552216516284      -1.48326553060859       0.00610031631753
C         2.14434545576983      -0.11577908714307      -3.23323067604111
O         2.00365052906903      -1.18379145709582      -2.57556031731756
O         1.30167269165424       0.68374448199404      -3.69390798666225
C         3.63284276818161       0.33540739563896      -3.46060296331265
F         3.84061938866491       0.90145199012553      -4.68098451675809
F         4.55229350241447      -0.66539365244802      -3.32496603147880
F         3.97107283047221       1.30040116187448      -2.51867634035737
