30
C8H13F3N2O3S optimized with ADF in AMS.
N         1.14519402271424       0.33685058516597      -0.29973587554846
N        -1.00903458796858       0.22128221725228      -0.05686204813829
C         0.10739308864720      -0.50296713814848      -0.20634357849574
C         2.55127952767082      -0.05692789616465      -0.48943870711090
C        -2.37217360206919      -0.31650275923855       0.08620572165677
C         0.68560832193283       1.62667909928077      -0.15143640939953
C        -0.66708081752782       1.55477799492452       0.00127430098853
C         3.33198237679980      -0.06299008179816       0.81122721922733
C        -2.79208188942844      -0.48016492574357       1.53613745278842
H         0.16886317973991      -1.58331090823329      -0.20697163548483
H         2.53601943506173      -1.05645033009115      -0.94832347557999
H         2.97000929879887       0.64222217153565      -1.23018517981358
H        -3.03041074053608       0.38006549552121      -0.45584481310732
H        -2.39372211194565      -1.27403620237358      -0.45512612161713
H         1.35398525545802       2.47787238366817      -0.15961552710174
H        -1.40643673941942       2.32941650140921       0.15657615920511
H         3.30905866185635       0.92188775509422       1.29801031358860
H         4.37773887413284      -0.33210348657579       0.59993211467890
H         2.89251226751533      -0.79786434276621       1.49707224014587
H        -2.18332321036057      -1.22982882195207       2.05932885613447
H        -3.84673977974439      -0.79317977598331       1.56373274331446
H        -2.68452630621863       0.46325619745191       2.08921809282771
S         0.45399187699891      -0.94102251855916       3.15045428090303
O         1.05076419067415      -1.84895809931817       2.13668970023254
O        -0.68488079043131      -1.50080563889747       3.88811424763065
O         0.30730347224825       0.45523722717609       2.68899587358684
C         1.79965530167523      -0.79856711042756       4.45937629088803
F         2.89330184525523      -0.13276019421711       3.97685373234517
F         2.21935981019855      -2.02017441536710       4.88018487564509
F         1.34964857797183      -0.11051381142463       5.54017194380997
