24
C6H8F2N2O4S2 optimized with ForceField in AMS.
N        -0.70250899251043       0.00262704413588       0.03008428876468
C        -0.02378858486938       1.18975972528487       0.01494845703005
C        -0.02510649806202      -1.18504541141650       0.01426640916189
C        -2.16671890972851       0.00284437708878       0.01841812937136
C         1.37331510686589       1.20664314373327       0.00225867979310
C         1.37135827454642      -1.20473430174351       0.00000050951477
C         2.07243276021617       0.00025653188078      -0.00399328075119
H        -0.56033598371268       2.13133644603279       0.01121135251948
H        -0.56178364743377      -2.12474972548952       0.01015208643420
H        -2.56636937148616      -0.89567700663933       0.53675435113990
H        -2.56565886432996       0.89731158906141       0.54401991798219
H        -2.52879325472630       0.00732438692626      -1.03112905436409
H         1.90785521837989       2.14771850517359      -0.00581609445921
H         1.90347300272590      -2.14718208623868      -0.01112879805850
H         3.15458765806167      -0.00090397860009      -0.01634842106803
N        -2.30292158096422      -5.62748467206838       2.15367610040108
S        -1.93186796291559      -5.65803437511642       0.56035214407638
S        -1.72665078131665      -4.45736968463961       3.14194380190368
F        -0.33976154516436      -6.14172482151872       0.37341408780341
F        -2.54137603221288      -3.02659730906271       2.83794021033275
O        -2.83473701190387      -6.62794831438969      -0.14745101050591
O        -2.09900201710719      -4.28761836069612      -0.03225951585636
O        -0.26034324382543      -4.24570540778896       2.88911214875489
O        -1.94163543302653      -4.85942470370941       4.57357202767948
