26
C6H11F6N2P optimized with DFTB in AMS.
N         0.21367789276876       0.41427872938367      -0.37513836672951
N         2.28096037215972       0.13809148720414      -0.90425197518787
C        -1.04754693281611       0.28025314393165       0.34763031168539
C         1.27351388234746      -0.37160871770905      -0.20172936703863
C         0.56452579046938       1.46893206391298      -1.17467159898666
C         1.86928032662010       1.29196565440633      -1.50994556243592
C        -0.96180269852165       1.01605409561291       1.68167908150153
C         3.64173961355112      -0.37399087083950      -0.88227476115454
H        -1.84036920970127       0.69415919884865      -0.28131876384600
H        -1.23353770633304      -0.78649795298583       0.50044258363618
H         1.31058281060228      -1.26167798845215       0.40087086826455
H        -0.12895282535571       2.25148772044411      -1.42637860850442
H         2.53171700898125       1.89289279503594      -2.10717468687926
H        -0.14863157297505       0.61499472755868       2.28419145236702
H        -1.90250798050775       0.89410828152192       2.21635642629139
H        -0.77543581448930       2.07538481982271       1.51629345797703
H         3.73002707641395      -1.21814611098647      -1.56766515864688
H         4.31727307478362       0.42543393461434      -1.17695380775891
H         3.87054748341063      -0.68608434062036       0.13584857389484
P         2.87156989593272       1.71839135421024       2.25865385171967
F         1.85605666695464       1.70642297001989       3.54219916696275
F         1.61519922474038       2.24162517212333       1.28686159385467
F         3.30508811948778       3.25823247657011       2.54469034835682
F         3.83596661312972       1.67532140395595       0.90007773732847
F         4.09892430634970       1.14358767465930       3.16115237241591
F         2.40576232299671       0.12412879655653       1.91724137011234
