37
C11H24ClN optimized with ADF in AMS.
N        -0.94265784477333      -0.07736811523477      -0.09564966578724
C        -1.38424921522823      -1.01048472625586      -1.19847175063161
C        -2.11308532346190      -0.11201793981883       0.87792908452357
C         0.29452811341883      -0.62070260196174       0.60675282116849
C        -2.12016979807784      -2.15216635580181      -0.49420083867300
C        -2.56961460751624      -1.56727295510391       0.87155518480205
C        -0.72297360615702       1.31346348554551      -0.63963149657981
C         1.57401923406959      -0.53750208721709      -0.20087151506065
C        -0.31564015975078       2.34257152149506       0.39585423441477
C         2.70773299566343      -1.22275669303417       0.56836581980963
C        -0.21522495572139       3.72044809402744      -0.25186067631491
C         4.04077631262632      -1.13206737719465      -0.16690873085686
H        -2.06217662258885      -0.43212814342435      -1.84412077234188
H        -0.51003816049182      -1.31955203042173      -1.78557211756818
H        -1.74884500406837       0.26191283921500       1.86823217111111
H        -2.87609788117595       0.55775403553979       0.45158369229906
H         0.06078360150244      -1.66895034665225       0.84704210698358
H         0.35407790564235      -0.07006496350795       1.57861705256937
H        -2.97062231418256      -2.48232734858051      -1.10806735407470
H        -1.46255838100398      -3.02295218661948      -0.35619946835444
H        -2.10881721429516      -2.11340179605405       1.70815659390199
H        -3.65892963416262      -1.62270872492223       1.00688453246849
H         0.02913880053102       1.22435072629708      -1.44050466104985
H        -1.68080154613572       1.59597203329036      -1.10888127693975
H         1.47638160327866      -1.01604752475282      -1.19436410549406
H         1.85669173347060       0.51524961935410      -0.37298447009381
H        -1.02806127716865       2.35201656270402       1.23709818189893
H         0.64206109896396       2.06861344594300       0.86437132229090
H         2.78876820614333      -0.75862493744413       1.56674834437038
H         2.44386879316124      -2.28262872584240       0.73637058615156
H         0.53847495440327       3.73798358052768      -1.05656551314334
H        -1.18009738540011       4.03496911080978      -0.68201370280341
H         0.07582025791766       4.46773747623094       0.50035320571673
H         4.84119888361994      -1.63147980920260       0.39893192302203
H         3.98014556054254      -1.60828599938994      -1.15928863074098
H         4.33751257703781      -0.08138621729902      -0.31440278492281
Cl       -0.33194928153247       0.88576698415655       3.45034389442864
