41
C11H22F3NO3S optimized with ForceField in AMS.
N        -0.89099180262269      -0.16120023288706       0.04784143950946
C        -2.02791178243399      -0.27157557836412      -0.91676945395321
C        -1.22170997369655       1.02096550292865       0.90250348626976
C         0.37967364674159       0.08573808899287      -0.70894337373365
C        -2.85138815341968       0.99778756448580      -0.82577236837727
C        -2.64205382965369       1.45382442166014       0.59027242558114
C        -0.81670105609926      -1.39070465517566       0.90198425210777
C         1.64503949508808       0.19253617115897       0.17585388333938
C        -0.46758418839501      -2.68048252190872       0.13717011460920
C         2.85201331927768       0.64257073521766      -0.65577756048665
C         4.11282243773113       0.72179988931336       0.19884963397565
H        -2.71077059452914      -1.11616310159113      -0.66681010075962
H        -1.69948365491343      -0.43522293992648      -1.96865762590160
H        -1.12160135667984       0.81756014340736       1.99326741877629
H        -0.56535346842532       1.89498676280966       0.68610056815403
H         0.54972572575727      -0.71846881975897      -1.45890461135399
H         0.28105424185215       1.02548930683695      -1.30115593576300
H        -2.45271911186900       1.75895940528074      -1.53269959435664
H        -3.92634937950251       0.81187555486875      -1.04161417408151
H        -3.35430552970404       0.93038820412605       1.26611240608372
H        -2.77236197962200       2.55379041677853       0.68887276270413
H        -0.07267951569851      -1.26134900885935       1.71816986297813
H        -1.79199132239188      -1.55347903274684       1.41634865970252
H         1.48869046177320       0.91665719866259       1.00269169939152
H         1.87950447080264      -0.79695954494171       0.62113866333842
H        -0.57460418485822      -3.54828083820965       0.82149352591233
H         0.58295826151550      -2.66523140785609      -0.21703749070335
H        -1.14254438609216      -2.84083488860540      -0.72786432190624
H         3.02494794461582      -0.07915201448114      -1.48382288885969
H         2.65349662457087       1.64406805547088      -1.09567631176951
H         4.33417135138353      -0.27043150208046       0.64573473295887
H         3.98426315570415       1.46962004023071       1.01015555855669
H         4.97323559386109       1.02761278922030      -0.43316430077659
S         8.32222805453439       0.10430360517349       1.99681926182567
O         8.25090770364407       0.12595602067802       3.53043944765033
O         6.87478039332058      -0.19699851910694       1.58648595656597
O         9.04879963810305      -1.21521407602617       1.69938157410847
C         9.05135189145999       1.58049097270316       1.23305321206704
F        10.35087008605580       1.73420645949083       1.67536532369320
F         8.31256910027558       2.69425514227911       1.58220991955132
F         9.04758087543873       1.43950859155129      -0.14108904512849
