25
C9H13NO2 optimized with ForceField in AMS.
N         0.16527742145061      -0.00873810695792      -0.34778308411123
C         1.60395443057192       0.00912097187286      -0.63797996469722
C        -0.51669769984917       1.17065789118265      -0.21956421232534
C        -0.48445183812341      -1.20466131725623      -0.20622608179671
C         2.40845220677985       0.01841950234365       0.65683928497618
C        -1.88796352643896       1.17127551838660       0.04714802283936
C        -1.85532444241270      -1.23947232727343       0.06036640169310
C        -2.55918568241749      -0.04267334467811       0.18514263082052
H         1.88918638049605      -0.88012236459074      -1.24267234590901
H         1.86762421337533       0.90570225655625      -1.24163246994255
H        -0.00229482666561       2.11891618833800      -0.32309778780586
H         0.05549567557515      -2.13967777079450      -0.29969355424813
H         2.15580224647852       0.91776025811074       1.25767848063019
H         3.49311455386014       0.03792102225489       0.42119803417420
H         2.18725075392194      -0.89368755014067       1.25051768280495
H        -2.42460355576827       2.10603959647492       0.14488922626876
H        -2.36660549645515      -2.18725346368720       0.16802340730217
H        -3.62188228310934      -0.05589836767209       0.38978712107802
C         1.20172773332081      -0.60191140577093       4.29131650626878
C         0.36405716057536      -0.15973035933583       5.44889391324175
O         0.32764456970472       1.01996661350977       5.75910616396326
O        -0.28504682385047      -0.97390566874235       6.08615068865578
H         0.85631813046995      -0.09215227800707       3.36774108927878
H         2.26453050376761      -0.34037572605622       4.47879023395728
H         1.12306930274260      -1.70070990586702       4.14583621848301
