43
C11H24F6NP optimized with DFTB in AMS.
N         2.23105658715683      -0.79508199392235       0.20537962638947
C         2.01474215160402      -2.27399903649236       0.39043553039081
C         3.43374095848016      -0.65051071542654      -0.71109384098509
C         1.04537410995137      -0.14247308988201      -0.43584358912580
C         3.35813407968464      -2.91610797449597       0.07976675712919
C         3.88879618065598      -2.06026877272355      -1.06514050005841
C         2.52947632212130      -0.15873767366646       1.51782094376665
C        -0.25135409879913      -0.26571777370744       0.36303852366785
C        -1.41697660848035       0.29354682501524      -0.46187643451603
C        -2.73372590894691       0.19995177406628       0.31498774176078
C        -3.90060630652349       0.76024183065731      -0.50449662702312
C        -5.21549022535774       0.66847162260917       0.26739102585500
H         1.25773926248647      -2.59995302849380      -0.32698031991153
H         1.66010769694311      -2.46338660985390       1.40321708108257
H         4.21052478684370      -0.11465118945706      -0.16662550147369
H         3.14750425670078      -0.06994743800985      -1.58819697858981
H         0.92180776419484      -0.60545854834926      -1.41868567555869
H         1.29966506171082       0.91158556656959      -0.57429005790768
H         3.23426299187935      -3.96178421489051      -0.20267804947607
H         4.02629275998010      -2.85326802697377       0.93995474808827
H         4.97603522652637      -2.09897026831521      -1.13003482396154
H         3.45866980695625      -2.38044737717310      -2.01824007276600
H         1.67646368019394      -0.27395273456530       2.18244905387925
H         3.40145900979403      -0.64568982183366       1.94597249285894
H         2.74612891013644       0.89480794743722       1.35694192412954
H        -0.45004992740888      -1.31255945811898       0.60777845822955
H        -0.17590945658240       0.29327524986961       1.29905657862878
H        -1.50220567156958      -0.26748242908194      -1.39860181393027
H        -1.21317312578312       1.33919927995832      -0.71498300174677
H        -2.64263378262234       0.75866851543308       1.25249968942123
H        -2.93249600000104      -0.84704451899306       0.56796807603869
H        -3.69776074297105       1.80641151904718      -0.75673622344360
H        -3.98777658491275       0.20082204467311      -1.44199035909775
H        -5.15411024849658       1.23709332712160       1.19610063595677
H        -6.02946825454741       1.07249620006718      -0.33434562685731
H        -5.44473782804373      -0.36985977959629       0.51035433430311
P         6.41969680941345      -0.26629738365880       1.66801968524305
F         6.31497694856621      -0.67588948071689       0.05233684672025
F         5.24789167369579      -1.44685718129330       1.97933110237078
F         7.58667306491081      -1.37644379560256       1.88424621274823
F         6.42044802701584       0.12528908524244       3.24919970550565
F         7.49601466981552       0.89736834622457       1.31730013659670
F         5.15589749912839       0.82350294750203       1.41500096796806
