43
C11H24F6NP optimized with DFTB in AMS.
N         1.99814633507054       0.46440650752899       0.11954383712153
C         2.24132231917837      -0.62091574099521       1.12508624078231
C         3.12122769153231       0.29186206036683      -0.85562025096191
C         0.68090742525949       0.30345787186608      -0.57706086413340
C         3.75661831978539      -0.67859429536257       1.28663441328823
C         4.33461621333845      -0.07858946004009      -0.00476479998805
C         2.09157817507703       1.81169866224605       0.74592458171913
C        -0.52420406492192       0.35807411063460       0.35975848821795
C        -1.80930864566466       0.10481755758131      -0.43494196328523
C        -3.03104938245843       0.16129203835367       0.48763150643281
C        -4.32639632234697      -0.08911654267783      -0.29019741444158
C        -5.54460039614769      -0.03176592631171       0.62982707871970
H         1.84779650519733      -1.54998149038745       0.70628312327507
H         1.72681608504663      -0.38142994454901       2.05308771237402
H         3.24914048443552       1.20997200581677      -1.42984150697829
H         2.85483729221071      -0.52320989591653      -1.53277759376608
H         0.70859197277452      -0.66128284322805      -1.09221303981188
H         0.62099198034463       1.09695927987460      -1.32772018757349
H         4.08047257359782      -1.71021429851703       1.43128704656076
H         4.06440732743608      -0.09705335833698       2.15709763960271
H         4.93837322320063       0.80429226741052       0.21323268084626
H         4.96109070490917      -0.79452758668970      -0.53947428229327
H         1.31757587032114       1.91581746596393       1.49938366659421
H         3.06196180541725       1.91621645896986       1.22261019628514
H         1.96827575218377       2.56628528989998      -0.02919379373942
H        -0.42480435047727      -0.39623659224337       1.14267228770241
H        -0.58681272732022       1.33366506831621       0.84508285618916
H        -1.75574052776848      -0.87793993329216      -0.91661959924126
H        -1.90732479433465       0.85912646031766      -1.22352677041671
H        -3.07598530229392       1.14355723273224       0.96870297285099
H        -2.92462604147901      -0.59138820039141       1.27539165981539
H        -4.42925690016349       0.66409419999529      -1.07899270582659
H        -4.27850742839405      -1.07218747126040      -0.77131926191787
H        -5.61975413130627       0.94797610180997       1.10300132476518
H        -6.45440622273671      -0.21217227200941       0.05703251236154
H        -5.46912655400498      -0.78922335278628       1.41089321639855
P         1.25716854881015       1.47843901651659       4.30486189553235
F        -0.12088452709325       1.81958715568669       5.09317948149150
F         0.35860872435835       0.72884127954568       3.07512833413356
F         1.14576035656670       2.88776656158729       3.44225593010887
F         2.65116545816874       1.11184672056779       3.41726568816005
F         2.16787317185279       2.20482042438883       5.43463074693803
F         1.38698662723848       0.02971456361773       5.04898239770763
