46
C14H26F3NO2 optimized with DFTB in AMS.
N         0.49890725629599       0.17149644054798      -0.03855995499956
C         1.73753164154307      -0.37496074585991      -0.67513969863572
C         0.51206549667961      -0.43861331528403       1.33160942035609
C         0.58371006455447       1.66730573173746       0.10372494915645
C        -0.70977996493118      -0.26685069510364      -0.81263770496358
C         2.78194798904939      -0.41524343615595       0.43864941723855
C         1.97850740420971      -0.45047963355521       1.74928304581374
C         0.49964681812477       2.45347882685839      -1.20009240548665
C        -2.02603953351908       0.24206721991569      -0.23242288555058
C         0.51651791212062       3.95043830859767      -0.86003650593695
C        -3.20819322476027      -0.35809284186273      -0.99957171520505
C         0.36661715297048       4.80189240626639      -2.11739254794518
C        -4.52597968921135       0.17915268642986      -0.44389213853989
H         2.02443822108827       0.24931417615663      -1.52074207503233
H         1.51112314918632      -1.38198451981528      -1.03338219076930
H         0.11889890599187      -1.45422875398538       1.24789674389238
H        -0.12484640784368       0.15398681137142       1.99354582052290
H        -0.23954108863347       1.96956492683091       0.75505043702763
H         1.52594025627477       1.88361108398637       0.61061509535929
H        -0.57817411253330       0.07672540208842      -1.84178505115279
H        -0.69648591479056      -1.36126681284796      -0.81504613060443
H         3.41245603782737      -1.29921472513493       0.32810134621750
H         3.42484142868605       0.46620813176572       0.40013098833562
H         2.21211523675976       0.41782446689632       2.36811414144969
H         2.19728579823776      -1.34822083965139       2.32957682060957
H         1.33385093605966       2.21041875282516      -1.86697191802651
H        -0.43181167461892       2.22705987006093      -1.72435257512213
H        -2.09876410007583      -0.03049418954401       0.82251772818360
H        -2.07448779743767       1.33077660400592      -0.29984268132931
H         1.45526141521073       4.19991623542513      -0.35433324570806
H        -0.30738569524460       4.16100912033344      -0.17158120080977
H        -3.12434368855436      -0.10176696516472      -2.06162179782584
H        -3.18887356929018      -1.45056006065460      -0.91563253053054
H        -0.57772817752219       4.58179623293760      -2.61663959516844
H         1.18270251626000       4.60968939779563      -2.81616533788946
H         0.37876603306938       5.85803479077552      -1.84899702799823
H        -4.55824255635283       1.26537246268014      -0.52864590717066
H        -4.63210586271848      -0.08832922640200       0.60753561112317
H        -5.36425293501543      -0.24156347593390      -0.99909032638843
C        -2.07319771215794       2.49410441355703       2.18219524969558
O        -1.94987868936440       3.09876837966493       1.11576723759349
O        -1.46855776265181       1.50430504719048       2.60914310354509
C        -3.22351925076515       3.04834641714286       3.14580753018975
F        -3.27674610007987       4.38922167826462       3.16634428137605
F        -3.08051233422437       2.64006024529646       4.41480442548492
F        -4.43181461790309       2.61393853885059       2.72909090771828
