31
C9H20ClN optimized with DFTB in AMS.
N         0.18399487160518      -0.05616256823126      -0.18177176709293
C        -0.74354683650266       0.75565385631019      -1.04403528398354
C        -0.51136002502090      -1.33090702123195       0.19441787370671
C        -2.07135221715189       1.05383466156636      -0.36840822422346
C        -1.85739771121752      -1.10622299955892       0.87774265963767
C         0.58875559758596       0.67417167950267       1.07155725699862
C         1.38186920376602      -0.38408337937049      -1.04110788129695
C        -2.78112907255337      -0.24289351145611       0.01863363335045
C         1.36516145703015       1.96290439919110       0.85769719136962
C         2.50462929709119      -1.11638354720002      -0.32727540593860
H        -0.91528215149693       0.16593543463859      -1.94869848834736
H        -0.21331313325369       1.67092697936667      -1.33309918548417
H         0.15193561940567      -1.89615783906904       0.85223643204549
H        -0.65700134681046      -1.89660715474787      -0.73009047503842
H        -2.68211744014032       1.61004343688614      -1.08398924869987
H        -1.93244800735377       1.68906284387502       0.51006852692732
H        -1.71748914003689      -0.64590664798688       1.85950223204197
H        -2.30887071394525      -2.08938815343957       1.03696236887810
H        -0.32559776059935       0.89337275127946       1.62534520064214
H         1.17844142797464      -0.03011498774523       1.66418010805583
H         1.00720775281468      -0.99476930176384      -1.86647165136359
H         1.74063658563512       0.56828368346721      -1.45510661089015
H        -3.69504772732280      -0.02066623671982       0.57453177239212
H        -3.05756002235667      -0.79297807120125      -0.88657244236234
H         1.57509945946356       2.38059988663938       1.84276680367799
H         2.30588223537906       1.79426973581912       0.34077152248555
H         0.79111465909707       2.68953843192753       0.28816026026776
H         3.25827649360427      -1.35563128599092      -1.07744890133276
H         2.97527162871626      -0.49645752117770       0.43361459554650
H         2.17139507612156      -2.04839199028966       0.12918698993478
Cl        1.57313124697208       2.58618171351108      -2.26430915420449
