37
C11H20F3NO2 optimized with ADF in AMS.
N         0.59837183734032       0.08539791465213      -0.47887189134504
C        -0.68388902350000       0.63896875728147      -1.06120992436049
C         0.29674581171939      -1.20476437479097       0.27496389016185
C        -1.77338375487343       0.84896657810332      -0.02155866225956
C        -0.79215643316415      -1.03270617446326       1.32033624850991
C         1.25412000354417       1.07687824142462       0.47916378349975
C         1.51700333362428      -0.23719498576960      -1.64590555575520
C        -2.07373373393256      -0.44801999089704       0.72986825381039
C         1.80074367254441       2.32939944597647      -0.16700460872402
C         2.88103971758578      -0.77830465240491      -1.27303541133267
H        -1.01787615190399      -0.09347194025508      -1.81535908723173
H        -0.42313231628090       1.57111735507770      -1.58192697642467
H         1.23924451546062      -1.52007378012866       0.74916544028238
H        -0.01695557919633      -1.92824064312269      -0.49654934463946
H        -2.66768727030258       1.21531292356076      -0.55244211886550
H        -1.48574311897698       1.64792169319234       0.68203791922843
H        -0.41544392740904      -0.41609114710103       2.15258877455435
H        -0.97774543130730      -2.03137694905076       1.74902187400113
H         0.48609397561592       1.32908818113104       1.21899462820969
H         2.03342501182201       0.48968255950369       1.01237464810573
H         0.95694457818527      -0.96265106514169      -2.25754631021905
H         1.59958456960516       0.69381841192634      -2.22586686472350
H        -2.82037943798076      -0.26976764063072       1.52001132457393
H        -2.52113363209636      -1.17558180417136       0.02683162373145
H         2.23852630044140       2.93238468356048       0.64308650968380
H         2.61927263913510       2.12221833022287      -0.86937888831544
H         1.03787716182499       2.94635022400540      -0.66651747804683
H         3.42423443074597      -0.97749478244982      -2.21040072573695
H         3.46832952560844      -0.07302976908721      -0.67225027508059
H         2.82493211112075      -1.71323468644936      -0.70192624811319
C         3.94942084756835      -0.73282699735464       2.51273127218928
O         2.87249737593299      -0.91856260870947       1.86240260566533
O         4.67629319339089      -1.50803092238983       3.13952841132968
C         4.41523176046364       0.77580969450614       2.46866456172393
F         5.52493573166626       1.04538248780274       3.19614793137811
F         3.43109709041299       1.64257491679863       2.91333662591007
F         4.69291411146530       1.17772616704194       1.16685693842466
