51
C13H24F6N2O4S2 optimized with ForceField in AMS.
N        -0.83493132055568      -0.20731926986281       0.02542289366594
C        -1.16975248182544      -1.24606526132603      -0.99750863113914
C        -1.96734612678658      -0.24787284972144       1.00139074040774
C         0.43895642517932      -0.56459029202665       0.73149283138435
C        -2.59496362745008      -1.70749369138105      -0.75642431246658
C        -2.79334381859413      -1.48650600760217       0.71599339195030
C        -0.76944613700199       1.13653887489291      -0.63520329465199
C         1.70469727062203      -0.53180666077165      -0.15855144562838
C        -0.42341380240700       2.30422292033315       0.31790484057240
C         2.91945486419930      -1.06636315363813       0.61140145891295
C        -0.53048767167960       3.64541593791710      -0.40346121422080
C         4.18564271018771      -1.01322056338549      -0.23826535742192
H        -1.06435235958168      -0.88275263631772      -2.04548553954386
H        -0.51978632942275      -2.14696620375841      -0.91267156176740
H        -1.63394383392201      -0.25204366932014       2.06446585387758
H        -2.65003149623511       0.62606909244258       0.89095977132069
H         0.34412574809692      -1.58529374038477       1.17024304675827
H         0.60730774567371       0.11245184471167       1.59789907427854
H        -3.30177613248777      -1.06920721905352      -1.33222294405409
H        -2.74242000163594      -2.77419648173673      -1.03325738685099
H        -2.38763275487402      -2.35135451321746       1.28659526045384
H        -3.86656170904116      -1.34032646319924       0.96764749024916
H        -0.02640378671553       1.12815341002832      -1.46303762287687
H        -1.74831331996439       1.35888262090434      -1.12081436429305
H         1.55753331129154      -1.14661321521950      -1.07116235951121
H         1.92414032932246       0.51035348696951      -0.47140154738576
H        -1.10656719095584       2.32197951574480       1.19200079155534
H         0.61406797703645       2.20067850498198       0.69361357603173
H         3.07873303371863      -0.45785835171580       1.52828144466296
H         2.73736968792118      -2.11992455899268       0.91654083714529
H         0.14410379865756       3.66488736050032      -1.28500984175809
H        -1.57400165771687       3.82058527043635      -0.74094071555322
H        -0.23749068929822       4.46538107718758       0.28578484855116
H         5.04399304802383      -1.39893531532728       0.35168455956730
H         4.06812955497464      -1.64219738476390      -1.14622601513010
H         4.40476025533370       0.03296692883722      -0.54037517342483
N         5.53423690549368       5.03219062638208       1.00143889671457
S         5.91944606822598       4.19936628025682       2.35867380488578
S         5.00686181373030       4.29940082817198      -0.36591714319989
C         7.65568863171797       3.80407807250930       2.32793583778991
C         3.23115438522780       4.38708663872637      -0.42465428169698
O         5.63800460954629       5.05700835840937       3.56005702574991
O         5.11772767834909       2.93027774728883       2.44627543370294
O         5.43640775926312       2.85892358348106      -0.39948309621298
O         5.56675692666057       5.02026616895679      -1.55949629531840
F         7.99582790901915       3.12770522882027       3.48327993754432
F         8.39297622658180       4.96982603602180       2.24602688461363
F         7.93592984080149       3.00896666131362       1.23325752831952
F         2.77743544575930       3.73877444439593      -1.55656472030243
F         2.83240882473877       5.70956688938866      -0.46172325534929
F         2.69973970099751       3.78143600911187       0.69701903279213
