42
C12H16F6N2O4S2 optimized with ForceField in AMS.
N         1.74604742102379      -0.03286447604111      -0.52378968266876
C        -0.62935841189808      -0.01371435066569       0.09507910020427
C        -2.07146911267546      -0.02718824683100      -0.42171284676306
C         0.37886361171811      -0.06674900677709      -1.05681125536145
C        -3.06734511571484       0.02895696934380       0.74252417384437
C        -4.50709363218331       0.02964096456986       0.23841619058146
C         2.37695092732354      -1.20155165588625      -0.19473337142774
C         2.35857067578689       1.17095422471189      -0.30625127142066
C         3.65410583047848      -1.18231286974960       0.37056276362293
C         3.63812646729140       1.22585910266151       0.25022571451676
C         4.28542061500417       0.04034648993223       0.59473856293762
H        -0.46594301726808      -0.88970378650716       0.76066951238090
H        -0.45712038417744       0.91298117846610       0.68558880857954
H        -2.24345753789598      -0.95548756331867      -1.01007613755203
H        -2.23189713394745       0.84982241045170      -1.08702786142645
H         0.22129060578090      -0.99220782559694      -1.65497899455470
H         0.21342343807277       0.79315917528300      -1.74433693735240
H        -2.89537791448999       0.95145726290493       1.33915101961911
H        -2.91862137498000      -0.85121152432803       1.40563851000606
H        -4.68874378881616       0.91448642189222      -0.40807479521051
H        -5.20297224886734       0.07256963788585       1.10259988253315
H        -4.71392442552847      -0.89642128969380      -0.33901221806412
H         1.88817183459700      -2.15562822680511      -0.35378685064418
H         1.85130257478389       2.09682294459045      -0.54636460945900
H         4.14534426605336      -2.10806344354393       0.64074661799008
H         4.11727432699021       2.18079454528015       0.42375119121971
H         5.27053053610347       0.06926320705405       1.04139719862570
N         4.25739272327489       4.27550224056355      -4.91708496897994
S         4.24021509612810       5.38522700279777      -6.12392759853207
S         4.76446633468147       4.62147519373495      -3.39648804953472
C         5.77333912921089       5.29104835368874      -7.02573186093903
C         3.34466036509081       4.93442642726047      -2.36962752351434
O         3.10781527578448       5.07708133541381      -7.06163029913977
O         4.06878308165196       6.77206983247164      -5.56858001995089
O         5.66339577385501       5.82688514547629      -3.39229625893085
O         5.50770788553351       3.43892670049862      -2.84347226208040
F         5.75791793570683       6.20452967523895      -8.06261184501262
F         5.92818101440885       4.01776626396051      -7.54012265933915
F         6.82959257160810       5.57467442177135      -6.18148773067966
F         3.75712291090386       5.22723634872366      -1.08343931015313
F         2.53805122742477       3.81388029620271      -2.34920801898485
F         2.62893373177108       6.00184324531366      -2.87659370898516
