38
C10H22BF4N optimized with DFTB in AMS.
N        -1.03867386022041       0.20480209314941       0.29720640989033
C        -1.25941716408115      -1.21837966546731      -0.14669980583279
C        -1.95311103551611       0.38913938692771       1.47235928084436
C         0.37559574285438       0.46527123708015       0.73354110280795
C        -2.61037513854699      -1.65620434598940       0.42481204843854
C        -3.18809206433350      -0.42581495951335       1.12782700654872
C        -1.41869288589673       1.14395882659120      -0.78757430868687
C         1.42665668015612       0.15370371895676      -0.32665072401246
C         2.81329237599551       0.22462388785954       0.32498550661089
C         3.91207490173519      -0.12353501964374      -0.68245951501950
C         5.29318905504828      -0.07056542049910      -0.03202167563593
H        -0.45352463848694      -1.82668372085301       0.26542389242814
H        -1.22548243175161      -1.25415592788627      -1.23618158879773
H        -2.13967465132856       1.45205840972757       1.62732153222695
H        -1.45135984920846      -0.04026299040717       2.34197847732080
H         0.55341929758385      -0.15827519805239       1.61120498052743
H         0.42325019137710       1.51643828793104       1.03234105092936
H        -2.44280158976566      -2.45225742381253       1.15327126400440
H        -3.27669293724810      -2.02497301411702      -0.35653734030803
H        -3.86021849226417       0.13123629782519       0.46907360006255
H        -3.73462716304335      -0.69554196920122       2.03194448006229
H        -0.78157021813310       0.96826503626187      -1.65138242863485
H        -2.45799771337333       0.97635453157889      -1.06200418629009
H        -1.28839626233700       2.16639322265438      -0.43593837197344
H         1.27470755401362      -0.85598624690812      -0.71469287187751
H         1.36647658537973       0.86027260039774      -1.16109688091564
H         2.84446874211540      -0.47969523369892       1.16166685408211
H         2.98136981240611       1.23128173406170       0.72347325894425
H         3.87615755082960       0.57786298532469      -1.52416092940171
H         3.73524374071052      -1.12945556781393      -1.07723970860272
H         5.49946467967724       0.93081079495743       0.34885393268088
H         6.06030319947711      -0.33018696903166      -0.76202024565764
H         5.34922155640609      -0.77575326735656       0.79778744047535
B         0.79264288055147      -2.29545275253209       2.52317904919716
F         1.00473614848003      -3.44342760943154       3.22363500504643
F        -0.59911703485412      -1.94420537385361       2.52141689342057
F         1.15981481490348      -2.43622395791480       1.15560604760374
F         1.49697496598851      -1.19947903550154       3.04012821149371
