21
C5H9BF4N2 optimized with ADF in AMS.
N         1.74465967726549      -0.54568487850745      -0.94667186467997
N        -0.03963038929274       0.25870796364056      -0.00790037165906
C         0.89301535089242      -0.69685988078851       0.07236045053730
C         1.36181927008428       0.55328390125240      -1.68373190495742
C         0.24526266483162       1.06316252629489      -1.09258995908406
C         2.97061933690485      -1.32126603292944      -1.11542732224216
C        -0.97273457776981       0.58133320117585       1.06544887498702
H         0.99965220280407      -1.40827690291258       0.87881972564035
H         1.93783708380514       0.90278698534307      -2.52979560013324
H        -0.33952090637313       1.94390555718266      -1.32237462297890
H         2.76171362593220      -2.24003691273617      -1.67976740137536
H         3.70002851331191      -0.69541856163208      -1.63871147282724
H         3.36853421778946      -1.53391811908454      -0.11576006414714
H        -0.45903416759749       1.26657492133303       1.75408472622300
H        -1.86999809975202       1.04181661242383       0.63615863108476
H        -1.25299952856064      -0.34151154216429       1.58586298126195
B         3.03797126936910       1.12629258074099       1.57712226087522
F         1.77089969514104       1.80157361705156       1.54853697659360
F         3.61548197415456       1.18970242653531       0.27226882176931
F         2.78568182135875      -0.27090864617105       1.88548094535439
F         3.88137897370095       1.67944312995195       2.53840408395766
