34
C12H19NO2 optimized with ADF in AMS.
N         2.33452087816214       0.24596880311041      -0.72112190959951
C        -0.12040741918221       0.31384290784248      -0.13129222705075
C        -0.87053031149794      -0.99738615947326       0.09252445870247
C         0.96310168524800       0.23276715075887      -1.22830790670963
C        -1.83613817727133      -0.92836663833582       1.27236919327596
C        -2.61248358628295      -2.22577226233087       1.47865997044467
C         2.90145150176796      -0.96444693832507      -0.25140577633042
C         2.92761413596981       1.44480777954023      -0.42325655994518
C         4.36629771680180      -0.89308812958253      -0.11282372742075
C         4.21855536648894       1.51929587184704       0.00321302064348
C         4.97103324123191       0.30613568364993       0.07792292187577
H         0.36609943166832       0.62161336591531       0.80910812930521
H        -0.84711305524965       1.10388796900142      -0.39161855683036
H        -0.14540596935245      -1.81314993589060       0.26076915152714
H        -1.43169438207548      -1.26226414045203      -0.82398713324105
H         0.84402926264923      -0.69240381927041      -1.81630602310357
H         0.87233863217391       1.07223827664530      -1.93602860763794
H        -2.54189778227137      -0.09101656878928       1.11848420972752
H        -1.26576827779793      -0.68151725665367       2.18661084269073
H        -3.21218594455478      -2.46963085198503       0.58702278819856
H        -3.29764561991363      -2.15298517230070       2.33755054476082
H        -1.92820104920533      -3.06988674274220       1.66044557518604
H         2.54525610277034      -1.82327205281944      -0.83216527658333
H         2.31502514755361       2.32789781024269      -0.60527307797836
H         4.90957578294749      -1.83674652469493      -0.09063988862440
H         4.67257745618999       2.48741411865767       0.20341959195286
H         6.04817912661996       0.35417940560144       0.25305149901093
C         1.61894106474219      -2.70512300247028       2.87452716959570
C         2.22885738618695      -2.52406150312399       1.50765927991953
O         2.61781924645901      -3.44508828855801       0.80207400104300
O         2.28613691573117      -1.22168106389962       1.17204263320560
H         2.25430969970387      -2.21552704780824       3.62761092369505
H         0.63145538650154      -2.22381856771670       2.91991556255397
H         1.53148020788688      -3.77395385599013       3.09851392634022
