40
C12H22F3NO2 optimized with ADF in AMS.
N        -1.42614704881584       0.20491949138542      -0.26401364669366
C        -1.80549231659150      -1.24337202444399      -0.64270169161066
C        -2.53179405451349       0.68143686198021       0.67540437160687
C        -0.10011236265112       0.24191892756579       0.47474857292402
C        -2.96721380976814      -1.60058595650073       0.27091739418409
C        -3.69416537985937      -0.26316823617703       0.42495708308429
C        -1.37791558278562       1.06726764689967      -1.49466840464895
C         1.11950670526569      -0.02091534559207      -0.38474782842797
C         2.36606835752505      -0.16823339790656       0.48914190473569
C         3.61457362264367      -0.42526192819545      -0.35350043246336
C         4.87978345912853      -0.55168405682873       0.48825111635800
H        -0.91473802188790      -1.87529723634637      -0.55866310310654
H        -2.07729648076990      -1.23677477692978      -1.70572942668707
H        -2.72348057429096       1.74393053036143       0.47661295237358
H        -2.15860996266294       0.56663236507809       1.70417993514537
H        -0.19405473260514      -0.51011488490358       1.27647056415812
H        -0.04738950793534       1.23796117491037       0.94774276598005
H        -2.61072306023571      -1.95145364586475       1.25515508183964
H        -3.59023433286196      -2.39366164548869      -0.16693633048124
H        -4.22036509323414      -0.00247768192857      -0.50851207113372
H        -4.42266931214979      -0.23796079895720       1.24865864718388
H        -0.79483387298942       0.51316328362927      -2.26220052026008
H        -2.40918026333087       1.21173278785485      -1.84255823828000
H        -0.92641336062741       2.03143897255637      -1.22684397984924
H         0.97435233158683      -0.91672649256108      -1.01223005624163
H         1.26949450465191       0.80536216970312      -1.09734219185427
H         2.22898738299231      -1.00175768157208       1.20504345103322
H         2.51474659454901       0.74568200276621       1.09732223315656
H         3.72949268076860       0.39333693453848      -1.08522191143887
H         3.46297618728830      -1.34298292117393      -0.94851879416195
H         5.07217950217455       0.37171558251246       1.05853410172065
H         5.75702481406848      -0.74463307861330      -0.14730176308823
H         4.79646561988041      -1.38045763300165       1.20980968423276
C         0.66859083219149      -1.04105086682970      -3.99067717008669
O        -0.16212958264021      -1.06843399489081      -3.02872256783518
O         1.31666924360819      -1.93990145573731      -4.53662326206937
C         0.92269612196129       0.41718089785722      -4.52468684514140
F         1.62462108433044       0.47678615162810      -5.68171096091060
F         1.63789772174526       1.16045824586582      -3.59208886005563
F        -0.24838802885326       1.11795102725052      -4.73442143459049
