24
C6H12F3NO2 optimized with ForceField in AMS.
N        -0.02438810000663      -0.05215538133933       0.00611663874788
C        -0.89960873019888      -1.18681064229531       0.37104923463529
C         0.62466738835285       0.48334573455403       1.22236138335994
C        -0.83533336450156       1.00941799199396      -0.62741085555925
C         1.01159621722263      -0.51444220561338      -0.94276154494236
H        -0.31443264252663      -2.00336057196089       0.85040362826556
H        -1.69080384781669      -0.86552350210419       1.08506276899710
H        -1.39996215267164      -1.60863082413801      -0.52961197593766
H         1.29995863934032       1.33260681030680       0.97270390716256
H        -0.13419359884584       0.85162344253759       1.94865832775087
H         1.23093824495042      -0.30127911982173       1.72829258213978
H        -0.19555886532590       1.86096030354314      -0.93980774264947
H        -1.35892457647592       0.62628092614211      -1.53167316363845
H        -1.60368328753447       1.40000620472400       0.07690866198974
H         1.69773558270835       0.31697305685935      -1.22113764899999
H         1.62423720487994      -1.32979269666561      -0.49651091353987
H         0.54889616324956      -0.90448323452044      -1.87687735637780
C         0.79838706003579       4.49750781678252      -0.86732217080903
O        -0.33798629333697       4.92838497641602      -0.75208011969992
O         1.43753379689794       4.20665501220002       0.13098195943558
C         1.40847245443321       4.31347678110364      -2.22495823983270
F         2.58209394369072       5.03917568359323      -2.30533835688292
F         0.54126209179092       4.74746602366829      -3.21258556302692
F         1.68865200578847       2.97543938863417      -2.42841363958795
