61
C19H36F3NO2 optimized with DFTB in AMS.
N        -0.65373239674269       1.72914648119245      -0.16340311312975
C        -1.54843456731046       2.26208930894169      -1.25048885787926
C        -0.36027923500365       2.83722577600658       0.81070903805918
C        -1.31438668133702       0.57962273868838       0.55110305250242
C         0.63236656807736       1.31222027230230      -0.81830946885344
C        -2.82617562920773       2.90774926828347      -0.72528742168083
C        -1.61427559054278       3.49337073661158       1.37319115846610
C        -2.50278310390578       4.03091966062533       0.25606624182887
C        -1.38756680319391      -0.72359824337094      -0.23853629364770
C         1.68550139635027       0.75850690877166       0.14054669425118
C        -2.31874817123327      -1.68949520921066       0.50720144546319
C         2.85418628638022       0.17749873714018      -0.66433346332833
C        -2.40639190469275      -3.03698200490331      -0.21221690752913
C         3.93261857111722      -0.38587389560887       0.26598385205435
C        -3.34758596921319      -3.99152391575693       0.52964545086894
C         5.10135693515161      -0.97229648578989      -0.53211724975832
C        -3.44733015303508      -5.34061784407457      -0.17989166072409
C         6.17802552847886      -1.53595804868962       0.39329666202494
H        -0.96111035345448       2.99877987505516      -1.80773494909165
H        -1.78453675911011       1.42950816278299      -1.91599468975018
H         0.23012557761730       2.41041969555332       1.62299550595394
H         0.24882458224247       3.57288671345372       0.27529779507382
H        -0.79064261572835       0.42845219715970       1.49621359979699
H        -2.32908523952941       0.90096338717462       0.78529434529315
H         0.38006108722252       0.56409420432107      -1.57334499923808
H         1.03054998932199       2.19178425297157      -1.33200775696244
H        -3.36063669838167       3.30746814752065      -1.59143247895802
H        -3.47082286971992       2.16790978720954      -0.24480876465491
H        -2.16413647933600       2.77739369090431       1.98996941087980
H        -1.28688695673817       4.31210791955554       2.01931378724220
H        -3.42987884100872       4.41923752591088       0.68253541796604
H        -1.99437538753317       4.84963077076005      -0.26639366902441
H        -1.78665417019483      -0.54644363582405      -1.24195504189769
H        -0.39907408128081      -1.18208115121787      -0.34322418968856
H         1.26011833130614      -0.02469469076481       0.77137360977414
H         2.05839601029275       1.55273131045242       0.79249228003915
H        -3.31541213015619      -1.24477148189035       0.58043173259195
H        -1.94391961488986      -1.83789994431609       1.52482356182981
H         3.28585626415937       0.95997956208961      -1.29767396576367
H         2.48367608892791      -0.61787607199940      -1.31985808419974
H        -2.77254739826040      -2.88269434529550      -1.23357620260598
H        -1.40786487387107      -3.48456243718185      -0.28033874576154
H         4.29945826991306       0.41101832096322       0.92176234334105
H         3.49423677026467      -1.16439203754098       0.89935478946131
H        -2.98057841588802      -4.14279437536622       1.55015866338902
H        -4.34258638705989      -3.54005021345694       0.59568605431082
H         4.73075786080922      -1.76766890565351      -1.18757820238986
H         5.53657314115862      -0.19216822491887      -1.16594992713684
H        -4.12137303623941      -6.00087787234564       0.36627774142702
H        -2.46705856338781      -5.81656981545764      -0.23871427382350
H        -3.83186681045173      -5.21294275244476      -1.19301671068428
H         6.57406541173332      -0.75255808806461       1.04084263113517
H         5.76697417130969      -2.32903383709460       1.01925302474731
H         6.99769101742814      -1.94754928428839      -0.19570752130743
C        -3.96536423313704       0.88944158065408       2.49015898824272
O        -2.87112902108344       1.11821640839409       3.00929286616407
O        -4.28708792428115       0.85970522662145       1.29721562671261
C        -5.15191962123547       0.58234656774386       3.52061760404063
F        -5.49068158764333       1.68172940903435       4.22185152082003
F        -4.80349198941500      -0.35993641929384       4.41521168054808
F        -6.26586849142890       0.14911930727092       2.91252402286961
