38
C10H20F3NO3S optimized with ADF in AMS.
C         3.05262856412218       0.96546388532133       1.15804358821327
C         1.67594441355835       1.54404112643563       0.82121618869753
H         1.51818549955753      -0.51318148011904      -0.87072548346278
H         1.11304918627709      -1.72070105219817       0.41240033795226
H         3.71059515127323      -0.82404505783838       0.02237860036940
H         3.11284608233065      -1.18580095197903       1.64599517739369
H         3.28597670041567       1.08914973477439       2.22534845587794
H         3.83122404490119       1.49750612915096       0.59309293375045
H         1.31396369889838       2.32452260624244       1.50464761518645
H         1.64247637027701       1.92191826947768      -0.21175041545540
H        -0.10247112602807      -0.95083398732526       2.34369351053080
C         0.43543742156236       0.01094533498889       2.29897391754139
H         1.38159317320460      -0.08571259853706       2.84213551201827
H        -0.16299150233920       0.82601069688361       2.72706080478937
C        -0.54932369493994       0.67140097467223       0.12437854158117
H        -1.00117869028753       1.50736691354670       0.68183111393035
H        -0.23681704190729       1.04802446283420      -0.86368453464001
H        -1.53967309045570      -1.12571629354324       0.87154881668497
H        -2.39040960946109      -2.92308795747424      -2.36209007391174
C        -1.34384377991968      -1.35303219151866      -1.27324186345500
H        -1.25270311968389      -0.70058657938500      -2.16306273374300
H        -0.42006823026294      -1.94537596220644      -1.19066314414088
C        -2.51444880624330      -2.31587090618327      -1.45322385734532
H        -3.46895962108705      -1.77009019682652      -1.53410454264082
N         0.73300372883049       0.36082343003931       0.86912494726832
C         1.55535378713430      -0.72947107775996       0.20802608416377
C         2.96063116425638      -0.53664641167500       0.77254572095414
H        -2.58014143758810      -3.00284165589588      -0.59566883809435
C        -1.53369393337537      -0.48440172694279      -0.02617139950730
H        -2.53649064599563      -0.02123093520780      -0.07490737991828
S        -0.15498164108862      -3.87958233644009       1.90115098248695
O         0.54028853926946      -3.55512667353350       0.63206492237209
O        -0.82046555604474      -5.17641376376982       1.96104651702497
O        -0.90957872461819      -2.73340178904544       2.46886044509833
C         1.28049235414103      -4.04779118400634       3.09696734749293
F         1.99956195210528      -2.87016730967008       3.16379982415465
F         2.14091454398490      -5.01889030901867       2.70493232557353
F         0.86380603302623      -4.33081530296769       4.35524935920787
