37
C11H20F3NO2 optimized with ADF in AMS.
N        -0.18308262465251       0.61494325611135      -0.61107078913347
C        -0.83794668473060      -0.23470508676399      -1.69331416383380
C        -1.39184468581629       1.18793481567238       0.11202217713237
C        -2.03888271229418      -0.89025515726137      -1.02019723514155
C        -2.42026728950572       0.05667764936574       0.14731717290996
C         0.60013662226613      -0.23570053815563       0.36065035253267
C         0.65818782780457       1.69880112963290      -1.25440843872073
C         1.89171410951030      -0.82464544200281      -0.18202911299768
C         1.26517868902358       2.67263023792881      -0.26592798913857
C         2.50590088202162      -1.78216150045678       0.83926445056712
H        -0.09057367035318      -0.92522429736217      -2.10436325007921
H        -1.16689317905968       0.49021641552100      -2.46376118127817
H        -1.75195495431807       2.02209770320496      -0.50049296904906
H        -1.07695211295999       1.55603330474061       1.09693143172509
H        -1.81105129499525      -1.90511300906579      -0.65736779822344
H        -2.85832196753307      -0.94876770917101      -1.75058514338263
H        -3.41688294158869       0.48848894146750      -0.01667605810406
H        -2.41180309371180      -0.46900463513302       1.11425786227486
H        -0.08266807767985      -1.03644096708944       0.68211746514316
H         0.80692824427773       0.39708845418979       1.23737241995925
H         1.43015357560341       1.17966818980395      -1.84155307957526
H        -0.02691662732749       2.20187423679474      -1.96175068236265
H         1.70235619176099      -1.36681601655620      -1.12293508517710
H         2.61138588390421      -0.02160319777099      -0.40867826512871
H         0.49199630159786       3.21042028242163       0.30174493398442
H         1.97048409103413       2.20358537569800       0.43716324960086
H         1.82324613075858       3.42670650874597      -0.84185566572586
H         2.71393611685936      -1.27123637234018       1.79260687229734
H         1.83317397884604      -2.62863435308219       1.04746771131458
H         3.45510167488333      -2.18905107864828       0.46198094030632
C        -2.73816601896734       2.48207604181573      -2.65032286682303
O        -3.51399273941998       1.59080329484463      -2.24400497620080
O        -1.59437844663585       2.39752791739923      -3.17750382012285
C        -3.18227666993736       3.95220893555965      -2.34033688031047
F        -2.60672762979749       4.32796134487388      -1.12758538410922
F        -4.52472719461248       4.11093008177685      -2.19260218340403
F        -2.76704747005496       4.86471100079058      -3.26200263772569
