35
C9H18F3NO3S optimized with DFTB in AMS.
N         0.57216356036083       0.15793493477354       0.23206899542410
C        -0.86691800867848       0.55350949033163       0.02409951484792
C         0.55513946094861      -1.29900651532286       0.64857455167089
C        -1.67712906427040      -0.44891232121994       0.83001633302284
C        -0.90072238283962      -1.74387151826750       0.61112453049855
C         1.31925760642032       0.36547757424146      -1.05649219449068
C         1.15372427282284       1.00108270431554       1.31424398410768
C         2.81926023084364       0.08344320977562      -0.98112685076356
C         3.41264630756633       0.12364396104140      -2.38780714651793
H        -1.09859903400999       0.46046122455702      -1.03951691763150
H        -1.00569008411439       1.58968041896821       0.33211950412942
H         0.95801810962414      -1.36678989380823       1.65968679762144
H         1.19327207276701      -1.87618734337215      -0.01789056193723
H        -2.70412012091414      -0.50689509394712       0.46823746885098
H        -1.68750200419328      -0.17793346056874       1.88851274320046
H        -1.10092792996812      -2.48265953742726       1.38742839192024
H        -1.15316670015960      -2.17681919708227      -0.36066753626088
H         1.14252917178626       1.40304520249430      -1.35588206409450
H         0.85110355635543      -0.29477426465317      -1.79271831631173
H         1.13857127348194       2.04240471752919       0.99626091747157
H         0.55652699642097       0.87103593882376       2.21391818110811
H         2.17505685489573       0.68682841905848       1.51284373325539
H         3.31743739739987       0.82616676014227      -0.35514446685264
H         2.99893702155754      -0.89757370544111      -0.53928909422454
H         4.47537386165639      -0.11076902330168      -2.34031305624132
H         2.92725850752032      -0.61120383233206      -3.03212162485209
H         3.29064975899187       1.11205407425238      -2.83334585530597
S         3.54787643066276      -1.30846559645962       2.25106471774518
O         2.40740211824929      -1.13419398705614       3.14303376671796
O         4.13359282853754      -0.05345750917249       1.80245303020997
O         3.30944016340447      -2.26464942417037       1.17845403743954
C         4.85025521280086      -2.09332694082274       3.30039670025886
F         4.44155695162427      -3.27861341527701       3.73640122409592
F         5.12365485740191      -1.33113077985918       4.35165955365758
F         5.96674226154687      -2.26459663754319       2.60386794602997
