37
C9H17F2N3O4S2 optimized with ForceField in AMS.
N        -0.02401652238493      -1.33505331793160       0.33889511747948
N        -2.03527162059348      -0.39423857910586       0.22602017576731
C         1.32881739654033      -1.64799871505245       0.79493678736097
C         2.37736028239907      -0.87653159296365      -0.01631222516765
C         2.19648510648582       0.64264714666530       0.11990248443826
C        -0.92131376289884      -0.54999924897610       0.96643518410051
C        -0.59116390773566      -1.69310376626410      -0.83068760510654
C        -1.83936664862490      -1.10818655271358      -0.90116470294313
C        -3.19130124532047       0.43692453852859       0.55117208349395
C         3.28425574487273       1.40062655182122      -0.63322630230577
C        -3.14668632573259       1.74087324228662      -0.23793117564599
H         1.43519640360465      -1.38495129121761       1.86881929668218
H         1.50849618985838      -2.74032758508503       0.69583363758134
H         2.30984528320049      -1.17032704861811      -1.08654828853907
H         3.38602397856878      -1.16078222591580       0.35598129072012
H         1.20991531744033       0.94509520956792      -0.29298442444689
H         2.23210704200630       0.93054570173688       1.19334110863098
H        -0.74746886206799      -0.06437914675681       1.91882356578576
H        -0.12548529991170      -2.31493341330801      -1.58414579148360
H        -4.12660450688149      -0.11546504658075       0.31666872417556
H        -3.19444906795801       0.67390898344735       1.63758341155522
H        -2.54273808730072      -1.18470003103925      -1.72004878025397
H         3.25534580788599       1.14284314384646      -1.71346266515136
H         4.28480448448332       1.15153782091077      -0.22043486723737
H         3.11626688520959       2.49321749398886      -0.52478907788229
H        -2.22118614088172       2.30355981167606       0.01019254191480
H        -4.02633231617743       2.36596791417350       0.02393351885815
H        -3.16557951147178       1.53323223740193      -1.32870593680209
N         3.86731658118784      -4.17336508805004       5.29863369358757
S         2.40084191160096      -3.90761976386584       4.62393580291168
S         5.24469390671675      -3.72051154911375       4.54035122083825
F         2.15809544093451      -5.00351180602780       3.38173578313056
F         5.39949220103596      -2.05555441401325       4.62299808548842
O         1.32979535019367      -4.08660537755504       5.66131902714510
O         2.33880503511314      -2.51379792210924       4.06674556459375
O         5.19635620669160      -4.13420250119876       3.09609159873439
O         6.42308441241148      -4.36370768488902       5.21353525959142
