30
C8H13F3N2O3S optimized with DFTB in AMS.
N        -0.18092410662871       0.09918130563803      -0.62344632066827
N        -2.23579896473113       0.53809717142222      -0.16071808628268
C         1.10363126208751       0.10147157183410      -1.32647776425654
C         2.26111541456069       0.46777233937203      -0.39571338567683
C        -1.28638572822604       0.67915232880201      -1.08253751209897
C        -0.43064391884659      -0.42560219375741       0.61638845432903
C        -1.72815926681584      -0.14520851138058       0.90869597373310
C         2.08828121381101       1.84515035087588       0.23994079517925
C        -3.57608435792469       1.09395022334323      -0.25987128771081
H         1.01721370720570       0.83395721102508      -2.13277938077921
H         1.25782422428784      -0.89465750603852      -1.75388679740552
H         2.36902577435441      -0.29666171871768       0.38043906238848
H         3.17113441333002       0.45426983191122      -1.00276386753826
H        -1.39526386488316       1.19481423793680      -2.02182200728611
H         0.31642127678992      -0.94895967242390       1.18582460139408
H        -2.31807871611171      -0.36804196730479       1.78038661656761
H         1.18549230219016       1.87710300034898       0.84894150478657
H         2.01076818304008       2.61110796725958      -0.53022304584766
H         2.94670210762300       2.06625109175841       0.87330764510211
H        -3.50012733455321       2.09242735212155      -0.69296542042312
H        -4.18777088521957       0.45732805369208      -0.90048105370786
H        -4.01032919149686       1.14536246333548       0.73625797801153
S        -0.91732172190191       3.87378632914863      -1.77411856764319
O         0.16583183124152       2.91423620459177      -1.96882272160790
O        -2.23950218680078       3.26931064171173      -1.90550025871114
O        -0.74499451608418       5.14918427143293      -2.40770212005282
C        -0.82120010269992       4.20459544650570       0.05212615285548
F         0.38525008234704       4.61345243556034       0.42750468731782
F        -1.07566198811693       3.05478796437789       0.71017290148874
F        -1.71417453472767       5.09715246181722       0.45483357364308
