29
C7H14F3NO3S optimized with DFTB in AMS.
N         0.07768691208735      -0.64505604887650       0.23606984278877
C         0.02264029744085       0.83235579320364       0.01022359785678
C        -1.29370898943587      -1.02749690345834       0.73150028361025
C        -1.39218293953644       1.08889856856316      -0.48668872009894
C        -2.24383974436211       0.09329167243831       0.30773147898973
C         1.12943929123975      -0.98609023322028       1.22902756390611
C         0.37650447532925      -1.35302669052541      -1.03924519249612
H         0.80305138076300       1.12546815837327      -0.69240231849792
H         0.19223265653925       1.32490505500982       0.97071951926137
H        -1.24619908187070      -1.14194873125162       1.81459346958384
H        -1.55867243566391      -1.99218582513997       0.29715892310715
H        -1.46375115783884       0.89487707526268      -1.55939204825630
H        -1.68906570269208       2.12203045851267      -0.30286483144849
H        -2.66914896638293       0.57643025219535       1.19036649533558
H        -3.06446618979020      -0.29449108172082      -0.29727814195802
H         2.09707039221213      -0.68079343322801       0.83491674691728
H         0.92145265881290      -0.46449201932310       2.16091519725707
H         1.10769575653885      -2.06097707813256       1.39871447724198
H        -0.38921244509908      -1.10865278186045      -1.77148354903153
H         1.35515862071230      -1.03976384055458      -1.39861806421072
H         0.36964177234994      -2.42527567164884      -0.84824134079232
S        -0.58024701202213      -4.46677678014887       1.08192425557384
O        -0.38340216838258      -3.41517774290003       2.07637067553986
O        -0.99442169295785      -3.94266189248483      -0.21777068142729
O        -1.28123066408259      -5.63299822632938       1.53649692480090
C         1.16047371239147      -5.00961370402609       0.74118826341525
F         1.78663008960156      -5.41920689374839       1.83466450260344
F         1.83941762545518      -3.94187756144155       0.26495603870212
F         1.23102432814352      -5.96454415383926      -0.17281140567368
