32
C6H12F6N2O4S2 optimized with ForceField in AMS.
N        -0.00176811588147       0.00147066055808      -0.00088473086675
C        -0.91580456328658      -1.11133076092117       0.33802620458334
C         0.64853070241957       0.49540282899359       1.23269744713976
C        -0.77105791241505       1.09947353745300      -0.62681109552449
C         1.03051562898490      -0.47781785255997      -0.94648077580518
H        -0.36111196207088      -1.95185760642633       0.81237029512452
H        -1.70377411822336      -0.77676505388437       1.04961185324308
H        -1.42083989816904      -1.50425712659847      -0.57264209248778
H         1.33632340594037       1.33865999691869       1.00925560393783
H        -0.10724208583859       0.85964414387844       1.96393604904217
H         1.24106692753924      -0.30990775115269       1.72189061833480
H        -0.10572401924465       1.95195967863707      -0.89132416964317
H        -1.27199993317176       0.75410640641955      -1.55897546576789
H        -1.55693013408866       1.47967373173023       0.06368416625252
H         1.73250651942396       0.34177497458897      -1.21984588789913
H         1.62662358362129      -1.30528220710031      -0.50053237047885
H         0.56599414955491      -0.85772393338494      -1.88417155922275
N         5.22398263145296       4.16577967859143       2.16774793982732
S         5.54633499113164       3.93899308992955       0.57678074906695
S         5.17938283691146       2.93700888454749       3.25190711266910
C         4.01544363956148       3.72581594379105      -0.30652059969051
C         6.72917629966657       2.87534742318148       4.12661075630441
O         6.25018718095417       5.15277942297613       0.03985971735275
O         6.41224335730366       2.72574881437863       0.37733051925742
O         4.93884678549443       1.62211225003491       2.56278833857987
O         4.07775964458869       3.19449285566836       4.24049302030701
F         4.27598955724299       3.56570453465744      -1.65399052722937
F         3.21641144710700       4.83832712880281      -0.12279581293840
F         3.35910152119374       2.60775581465738       0.16654386989807
F         6.70748661738477       1.83176606145197       5.03221393780456
F         6.92541650159180       4.06439272109578       4.80308502293186
F         7.76322387132044       2.68282881868622       3.23040667489693
