55
C17H36ClN optimized with ForceField in AMS.
N        -0.53877162088988       1.78312307388108      -0.18033026379347
C        -1.41913533695479       2.32252233247602      -1.26719951983777
C        -0.20868413034439       2.89811617674374       0.76639376280183
C        -1.20009605151597       0.66345166474640       0.57530498368670
C         0.72923009732978       1.32847811131385      -0.84687911093135
C        -2.69918038601422       3.00565913768329      -0.75845525741781
C        -1.44416970068930       3.63340874149711       1.32741731460872
C        -2.35594071081328       4.13259601155141       0.21017678868766
C        -1.51741725671725      -0.61018727122021      -0.24684761637567
C         1.76999524481311       0.63770712982669       0.07044558280850
C        -2.18554408379851      -1.66756830970571       0.64122656225766
C         3.02653561167427       0.27457863409137      -0.73200217614424
C        -2.48234694933920      -2.94914396178607      -0.14617828545469
C         4.05907273411787      -0.45316646480663       0.13715388368497
C        -3.16788672282061      -3.99162256593950       0.74452591947251
C         5.30797483878617      -0.80158931566616      -0.68206778368575
C        -3.44812018867373      -5.27683048336976      -0.02766412075161
C         6.35612510918467      -1.50416399929686       0.17436860977792
H        -0.86382058985557       3.08359962324684      -1.86399473625323
H        -1.70032333063692       1.53335527442627      -1.99508590430917
H         0.36595774479987       2.52156641051660       1.64015948338570
H         0.43236634954950       3.65899805923105       0.26418689373987
H        -0.57286462553157       0.36933130171838       1.44509555377715
H        -2.15270796975457       1.00171626966962       1.02651580196488
H         0.49678422180970       0.63652526226962      -1.68715559015786
H         1.23428140591268       2.19943823804908      -1.32611642856426
H        -3.24471509817846       3.43641049639065      -1.62583828378491
H        -3.38323668348840       2.27396294959266      -0.28199910211692
H        -2.01268748424840       2.98022316459049       2.02160213927004
H        -1.10165542437922       4.50763507997816       1.92219370651011
H        -3.29250455410364       4.53888507537348       0.65027424421986
H        -1.85014727698717       4.95575031326979      -0.34134464462831
H        -2.21213935694563      -0.37358047472766      -1.07758333022567
H        -0.59000196447963      -1.04853628525903      -0.66845459475097
H         1.35408103973446      -0.29681926675533       0.49987772157142
H         2.06866806633606       1.31088925547587       0.89957007449269
H        -3.13767859218853      -1.25781544181932       1.04577102156970
H        -1.51405856655310      -1.91072288912365       1.49439226216590
H         3.48137699653613       1.20462543772645      -1.13952831292629
H         2.74193914629645      -0.38190666522980      -1.58410139586349
H        -3.14490276247163      -2.70837516191049      -1.00693656356985
H        -1.52906310857502      -3.36836903303629      -0.53790779575813
H         4.34613609003127       0.19708214247011       0.99290473784982
H         3.60936003904334      -1.38895065312284       0.53739549434881
H        -2.51643118863284      -4.22958521408097       1.61396700060703
H        -4.12994386049307      -3.58409930276635       1.12586644731976
H         5.02642364856468      -1.46946895992764      -1.52560603507442
H         5.75397982475215       0.12678256229499      -1.10158723050967
H        -3.94398282808312      -6.01130690893004       0.64151842352937
H        -2.49853974495486      -5.71854215159504      -0.39841941337689
H        -4.11894825789583      -5.07095434399563      -0.88897016863772
H         6.70326834495639      -0.83028137605754       0.98619560825927
H         5.93565044354713      -2.43128443826509       0.61854286941574
H         7.22773497666040      -1.77769353552272      -0.45713449655337
Cl        7.23245655327223      -1.72586145478472       3.90394783786990
