57
C15H32F2N2O4S2 optimized with DFTB in AMS.
N        -0.60064567016349       0.51163168252598       0.28428892234275
C        -0.91951816196754       1.36408640649307       1.48210641943670
C        -1.79562710831033       0.47842374735879      -0.62214607103261
C         0.51900749668123       1.16221035918230      -0.48938819473470
C        -0.22150637460103      -0.87083327266824       0.74158714298488
C        -2.16206094852800       0.89701309677600       2.22644494978361
C        -3.06627002973879       0.00122656762609       0.07357677098005
C        -3.37438263127339       0.85917817308771       1.29992448129642
C         1.83687013305059       1.30202772843885       0.26832540083647
C         0.38579254428961      -1.78314785285245      -0.31928728112262
C         2.90286616244579       1.87937981925461      -0.67022283668194
C         0.55935895431767      -3.18110430647913       0.29264167100372
C         4.23115902738882       2.06017817436901       0.07228431335955
C         1.41017153114030      -4.07330676020698      -0.61532759299959
C         5.29704993229797       2.66326333032268      -0.83899656386829
C         1.54685824073304      -5.47769063239104      -0.03143667756497
H        -1.05741494351714       2.38558269040152       1.11613394522794
H        -0.05810669118810       1.33453917697153       2.14848389001959
H        -1.55282514525649      -0.17008187297660      -1.46631732774017
H        -1.93981082451725       1.49706324795436      -0.99345008107437
H         0.15712810124595       2.15086914884653      -0.78625971809625
H         0.66385460562044       0.56777458236942      -1.39467047883065
H        -1.11806104803819      -1.33398569358289       1.15410565677276
H         0.49766743752948      -0.74859529837174       1.55333015468811
H        -2.33591588448221       1.60544878504918       3.04003174152460
H        -1.98729108205642      -0.08181927936469       2.67815665343370
H        -2.97770936338325      -1.04950704535800       0.36026818698792
H        -3.88135524786130       0.07769264176115      -0.65104312479794
H        -3.62665196921128       1.87583753847970       0.98043673363496
H        -4.23524394778923       0.44553734905626       1.82975217788393
H         1.71555476157086       1.96489452722314       1.12696818240140
H         2.17670115011773       0.33378845362819       0.63654963889253
H        -0.24898326985049      -1.84396132378645      -1.20862643964960
H         1.36780813006449      -1.41191046457822      -0.62220600381935
H         2.56210259568790       2.84310973984428      -1.06595075117252
H         3.04433676351541       1.19996211624564      -1.51806200093166
H         1.05631713723546      -3.08626926702425       1.26245151310303
H        -0.42509735074663      -3.63266222070448       0.45509960114162
H         4.57039239812212       1.08941063389905       0.44307681902352
H         4.07633809444795       2.71092047513309       0.93844308391733
H         2.40367533159140      -3.62626766013646      -0.71906339340358
H         0.95591656758927      -4.12858497637330      -1.61099174891567
H         6.24090975496202       2.74361789086872      -0.30021124943918
H         5.45136343854397       2.03438747592017      -1.71716662082859
H         5.00098601126084       3.65920315722831      -1.17278538628520
H         2.16495635626642      -6.09372992555168      -0.68457120106795
H         2.01568981468840      -5.43453756128552       0.95202138685838
H         0.56827233463412      -5.94968704161063       0.06943051216278
N         1.89184563286210      -1.34250232531591       2.89332964102713
S         1.45437916615465      -0.32312824187634       4.02175968343890
S         3.41696852687049      -1.35095395989805       2.41871756712710
F         1.70766160376684       1.14961498646227       3.31944954268856
F         4.13063035027576      -2.32428145080433       3.47875221957720
O         0.02321483491262      -0.38500038257769       4.08956489595058
O         2.21361119769834      -0.27323634733461       5.22174015955506
O         4.12459803313295      -0.11556916821506       2.51087161261712
O         3.45132860286757      -2.07124698805284       1.18320774377750
