24
C4H12F6NP optimized with DFTB in AMS.
N        -0.16116887958607       0.36151584197004      -0.36708018892658
C        -0.57008479527203      -0.78003003377634       0.49056136349677
C         0.56100149433775       1.36605111237040       0.46332729780722
C        -1.37094407395518       0.98329906818188      -0.97285064629388
C         0.73389657635954      -0.12581118297515      -1.45142661625283
H         0.31867517343419      -1.24078531148978       0.91814591301813
H        -1.21491776349743      -0.40988464586677       1.28548881548628
H        -1.10902270223211      -1.50587272304396      -0.11579913534936
H         0.90551416305766       2.16990044986413      -0.18239392251628
H        -0.12539282328334       1.76342979463623       1.20794050246685
H         1.40548835761282       0.87997577569860       0.94830314562246
H        -1.06047907870579       1.81253429240596      -1.60411032475345
H        -1.89454668260626       0.23357688544939      -1.56300807216824
H        -2.01355656726447       1.35100142909360      -0.17560938783272
H         0.98081653908092       0.71402102709102      -2.09828807285559
H         1.63792412410633      -0.53717427205057      -1.00651215736395
H         0.21293548164988      -0.89395604261500      -2.02001813002856
P         0.22312091576067       4.16691425454010      -2.25970189270824
F         1.41648014521108       4.92609261712061      -1.44809973643412
F        -0.48487592615147       3.75276823195606      -0.78506000578017
F        -0.67817998985717       5.51163906133099      -2.32497178063851
F        -0.97183076230513       3.29104833509109      -3.01567520173295
F         0.92559453786059       4.47649286721103      -3.68918661837990
F         1.11310022864504       2.71777227070644      -2.14935603138237
