56
C16H19F18N2P optimized with ForceField in AMS.
N         1.92221608341702      -0.88773597611694      -0.19568010337693
N         3.18293318685953       0.94268034408198      -0.14327397907144
C        -0.34392585606585      -1.86906501972901      -0.04132034462264
C        -1.05087247838125      -0.54570290322883      -0.36798299352209
C         1.04643622653204      -1.95177161219886      -0.68542928530301
C        -2.45428773691280      -0.50396645164108       0.24737770766397
C        -3.13701631533954       0.83980033407084      -0.03292091157947
C         2.44007327457406       0.12697031117619      -0.91572740370506
C         2.35943630349800      -0.71114539727689       1.06835692392537
C        -4.53429385821370       0.88702203915676       0.57830839599738
C         3.13590741328761       0.42907761319781       1.10111012118448
C         3.88653728630186       2.14941123768561      -0.55775244363150
H        -0.24865061820730      -1.98304602917317       1.06049532136311
H        -0.95686385822587      -2.71601256816192      -0.41999075519956
H        -1.12865587332946      -0.43081124753422      -1.47161912444558
H        -0.45402761480397       0.30200444899281       0.03405213278405
H         0.94453737299986      -1.88568138466068      -1.79126281422395
H         1.50302786006519      -2.93682515516876      -0.44855321073596
H        -3.06828116078454      -1.32676834218529      -0.18102405188100
H        -2.37891144971928      -0.65422461909686       1.34712688198012
H        -2.52948364396636       1.66571047548927       0.39758317821882
H        -3.21845538774151       0.99792677346293      -1.13047620276269
H         2.26866237938934       0.27532021372224      -1.97498471564305
H         2.12374898249802      -1.35588891210658       1.90501499530588
H         3.62374383274866       0.85512582982835       1.96777949890801
H        -4.47882763530091       0.75079751344444       1.67945813928126
H        -4.99967692096192       1.87258435476913       0.36591838236540
H        -5.17358244320622       0.09054540034109       0.14141428576565
H         4.97221038712587       2.03748710681033      -0.35434901478080
H         3.74129423857075       2.33139882324433      -1.64402990649081
H         3.49584189649148       3.02151235470334       0.00748720521972
P         7.74222064190531      -2.36575896596923       1.30529423780833
F         7.27880592344127      -3.94018324326578       0.77612497849255
F         8.66370367827931      -2.52997508657367       2.75200962375230
F         7.00870546445094      -2.24510442209913      -0.24632566313848
C         9.46921619176630      -2.98947880288117       0.70055317442429
C         6.28744496522873      -2.86472634031314       2.48106888827598
C         7.55484771450237      -0.45643527201611       1.21512251911544
C         9.62644545271389      -3.16932284676124      -0.82518335039137
C         5.97299762179744      -1.92173223824706       3.67055063700102
C         8.34462799222575       0.29418059463285       0.12706664672984
F         9.72948069137515      -4.22830142274850       1.27540087861843
F        10.46861099846414      -2.13166649630262       1.13213728297371
F         6.55080917169002      -4.11140765293687       3.04071912946520
F         5.12839894425516      -2.97286333619972       1.72734336720976
F         7.93533132347184       0.07209050130714       2.43571583457875
F         6.22145009659192      -0.14887595194855       1.00818504522331
F        10.88147994706251      -3.68977420087957      -1.08730701999898
F         9.52160752667445      -1.96706715986622      -1.48881043265359
F         8.68686512675595      -4.04817043935485      -1.33188687524578
F         5.06115939068575      -2.54930001348763       4.50139105211763
F         7.09666312551221      -1.63560231429835       4.42216549950196
F         5.39503783313051      -0.74234959657506       3.25147044165870
F         9.69741923643032       0.04811956842987       0.21732863736131
F         8.15579476751935       1.65371868178228       0.30342341855644
F         7.88584501077066      -0.02800642082604      -1.13681877442443
