30
C8H13F3N2O3S optimized with ForceField in AMS.
N         1.10027639221359       0.41261588848729      -0.37327638299169
N        -1.12258363879506       0.36017616738733      -0.38271905295226
C         0.00482784165508      -0.20892754045656      -0.85197464676703
C         2.49315628236033       0.05556674562687      -0.63074500759287
C        -2.49538772927434      -0.05971740191760      -0.65280937832253
C         0.65150317657457       1.41176672351899       0.41325050286814
C        -0.72790501286178       1.37930517904674       0.40749683217997
C         3.13707823494753      -0.51308813687049       0.62930608474061
C        -3.11281558617192      -0.68802849630607       0.59179441627474
H         0.02790412292991      -1.06998577201869      -1.50890252770817
H         2.54689172967198      -0.70579731131270      -1.43899991006764
H         3.05233700781601       0.95459012417984      -0.96802762896680
H        -3.09738059019115       0.81848282714295      -0.97114481571695
H        -2.51038544199278      -0.80566373403599      -1.47737467604911
H         1.27871184962338       2.10625932313356       0.95701840964536
H        -1.39180128970177       2.04377295329441       0.94511037433290
H         3.18382884541780       0.26360325624201       1.42155667854235
H         4.16823792617179      -0.85562583783590       0.40111302800246
H         2.54663643820951      -1.37703121743551       1.00225854022578
H        -2.52027753308708      -1.57482075004738       0.90267903574923
H        -4.15226361385607      -1.01014496719295       0.37192974380117
H        -3.13436492020162       0.04573593136557       1.42510505645954
S         3.65102915237516      -4.60952999003208      -1.46771612794198
O         3.06445077720575      -5.82160545605172      -0.72978920728718
O         4.98147735535219      -4.36708668217970      -0.74021800695905
O         2.77087416477493      -3.44873774444846      -0.98408478449200
C         3.77352195566843      -4.78673153691583      -3.26782428931159
F         2.50714873458032      -4.91430023118460      -3.80494463112402
F         4.51736462926987      -5.91092976041425      -3.57012522489626
F         4.38908747641542      -3.67026424586906      -3.79989524227512
