51
C13H24F6N2O4S2 optimized with DFTB in AMS.
N         2.40777384905353       0.47837605799044      -0.44099628753684
C         2.71915112935667      -0.47128576198991       0.68178614764900
C         3.39947963067608       0.15622145468729      -1.54409476785307
C         1.01353833845521       0.29676153737467      -0.95921104784909
C         4.20952395829526      -0.74157214904115       0.54900596438974
C         4.40982683810984      -0.82961508927233      -0.96123465778517
C         2.61511949132663       1.87803924829790       0.02502731678638
C        -0.08059605490852       0.51845338418620       0.08360333158253
C        -1.44557507000580       0.17512307379675      -0.52605295040659
C        -2.57108634235858       0.40125572100714       0.48798917631448
C        -3.93681243381154       0.05936150852645      -0.11628555711700
C        -5.06155540151477       0.28445519131021       0.89231898300004
H         2.14186317733644      -1.38522732327576       0.52215209220606
H         2.43443701380503      -0.01665487995465       1.63000091407677
H         3.87467377167794       1.08526808195117      -1.85672984480674
H         2.85760551675149      -0.26649306792054      -2.39084029285976
H         0.95016057932733      -0.72296396941186      -1.34887589724883
H         0.89212942668237       0.99854034336893      -1.78850369641567
H         4.48737989954120      -1.66375335100331       1.05983116678190
H         4.79363912894218       0.08421405273594       0.96007532718104
H         5.42394944587806      -0.54896146302919      -1.24545330801085
H         4.20455488912475      -1.84191108773604      -1.31872472334418
H         1.90005625080357       2.11246476696738       0.80928112879111
H         3.62414828576398       1.96576523900700       0.41551024522915
H         2.48863295705297       2.55738169395665      -0.81490977593926
H         0.09562153259013      -0.11411457437962       0.95774802977208
H        -0.08913425957032       1.56010358500429       0.41345409715133
H        -1.44669962506738      -0.87104981414343      -0.85014621199372
H        -1.61529345982669       0.79979766134980      -1.40919451556756
H        -2.56425003988656       1.44789774129673       0.81015253458973
H        -2.39427776216062      -0.22142767697084       1.37157334197684
H        -4.10873445147650       0.68255344925810      -1.00021224636720
H        -3.93937834881830      -0.98720807807818      -0.43909578078308
H        -5.08685205859211       1.32749776331001       1.21012532322951
H        -6.02166594946346       0.03513912255883       0.44081287326634
H        -4.91733583180397      -0.34346787739542       1.77246708222932
N         7.37690671035172       3.42438067957021       0.03354459845741
S         7.72326670299794       4.93900906546400       0.52354813644671
S         5.88083978665733       3.16312760470308      -0.37875738073123
C         6.94904858855724       5.11272362148148       2.23103390899327
C         5.53316829456314       3.75710131384313      -2.13335274369452
O         9.13877430712233       4.97257535639709       0.75870954541915
O         7.12312688146786       5.97054077732955      -0.28230736590420
O         4.83884454772673       3.81627632940300       0.39722338909818
O         5.72761714389000       1.72090337017540      -0.54514958651737
F         7.81177538254759       5.71256242648428       3.03621798031898
F         6.66652308845744       3.91704382643946       2.73349031290163
F         5.84324430882122       5.83137743774404       2.18248942582070
F         4.40285443180069       3.13157720598960      -2.52155948742227
F         6.49893043228192       3.39699496713809      -2.96190229696600
F         5.32937436467124       5.05099602119793      -2.22831751723919
