40
C10H15F6N3O4S2 optimized with ForceField in AMS.
N        -0.68460475918315      -0.90061351301589       0.41402925793022
N         1.50606347462701      -0.52935873861057       0.32523313317043
C        -2.09097150373610      -0.79113903001988       0.79940202162424
C        -2.89734792990301      -0.03851636417742      -0.26636156332850
C         0.35958149426062      -0.26550117850064       0.98155474013036
C        -0.18116177804938      -1.59006391997478      -0.62972471395471
C         2.82347193654318       0.03764531884263       0.59964759451323
C         1.17736764535428      -1.35713820130518      -0.68670135966060
C        -2.38154098169037       1.38439631432187      -0.47700741237030
C         3.12941026765726       1.15984269787970      -0.38458824046078
H        -2.18175526251548      -0.26064357676268       1.77298629091617
H        -2.51541342956957      -1.80982293614256       0.93120025780382
H        -2.85666113747959      -0.59154381528349      -1.22944370089415
H        -3.96012185382226       0.01060030836801       0.05526342688486
H         0.27990225991927       0.40823938831442       1.82582409073126
H        -0.76185009967858      -2.19306048953728      -1.31411218980325
H         2.85410527320531       0.44593664218867       1.63340470797494
H         3.59691292680224      -0.75632442044562       0.51763810821849
H         1.86965481582465      -1.74515711090594      -1.42223957503942
H        -1.34806128473639       1.36752670921168      -0.88410775318304
H        -2.38909024827520       1.94510306652197       0.48194252977696
H        -3.03442022931165       1.91090442260742      -1.20407434175868
H         3.11959057385484       0.77110369820327      -1.42486953904175
H         4.13216044914501       1.58471612676942      -0.16838755907629
H         2.36948644436893       1.96446033769409      -0.28726904199762
N         0.41041162573606      -6.72945232845410      -2.76690016618459
S        -0.07386339126653      -5.96214885079835      -1.40170871415739
S         0.72115282444249      -8.33824979903341      -2.81728302120778
C         1.35540601328886      -5.31523090580481      -0.55883608198595
C        -0.70550162187044      -9.18572864503449      -3.46324378783245
O        -0.97952522803283      -4.82277092347454      -1.77161102283125
O        -0.80800768242042      -6.90897228704353      -0.49320913614455
O         1.04098443555901      -8.86251554869749      -1.44471950789116
O         1.88635342514508      -8.58804709762194      -3.73198070699223
F         0.95689903260491      -4.61199508706735       0.56234596500812
F         2.04704817900793      -4.47217235681310      -1.40699163969446
F         2.18086684136554      -6.35534709852356      -0.17741160155862
F        -0.46263945507021     -10.54586511197772      -3.49789789273483
F        -0.96841296165383      -8.73539368193678      -4.74304576514770
F        -1.79927809624747      -8.93602877366005      -2.65682058475102
