28
C8H12F6NP optimized with ADF in AMS.
N         0.11613670880801       0.31040508946216      -0.55371067841466
C         1.41605784223515      -0.29221066514642      -0.95891042060158
C         2.39815625104163      -0.37733809782241       0.20729846642174
C         3.81257127861076      -0.62875420788192      -0.30734633086590
C        -0.31797335734975       1.43097642614352      -1.16316624115994
C        -0.55924160536806      -0.21542096313387       0.49199287094175
C        -1.46729437316722       2.06734958569986      -0.73186438701292
C        -1.70764006395622       0.38555815894789       0.96022861541219
C        -2.16665705668018       1.55079939189875       0.34844430269870
H         1.19778158061134      -1.27929597905552      -1.40056331944651
H         1.82152081929466       0.36584055191092      -1.73795300250259
H         2.10056186255303      -1.18465167142316       0.89903384802938
H         2.36439353953331       0.57549623614944       0.75628502975858
H         3.88408762398413      -1.56055057802118      -0.88993692279822
H         4.51168370437509      -0.69949334697638       0.53822612914852
H         4.14106543120362       0.21049157684479      -0.93852002672180
H         0.30538660877309       1.82300837219868      -1.96062586921560
H        -0.13048001629643      -1.10706120176466       0.94130535267459
H        -1.76525841724573       2.99405876448242      -1.21898427421251
H        -2.22067596412038      -0.04537055853705       1.81961622382539
H        -3.05012478578641       2.06418554323331       0.73016890036786
P         1.76963109847283       3.58165015459460       0.74998153282891
F         1.41695454513754       4.46937547148883       2.07530291316961
F         3.08750786166041       2.91501044285462       1.48158657289294
F         0.83591710202384       2.31900057049509       1.34942103417455
F         2.09448493441932       2.63263115261827      -0.61876660680093
F         0.41859395440751       4.16168864417881      -0.03413075098851
F         2.67748122862508       4.78349289316061       0.11577019899697
