40
C10H15F6N3O4S2 optimized with ADF in AMS.
N         1.62853248632813      -0.99724296462110       0.79915658747822
N         2.57151538482552      -1.34178974292048      -1.12418810365017
C         1.38688230496812      -0.50207786823229       2.16356314501814
C         0.71241204519990       0.86746284331896       2.15316400581275
C         2.75079837932528      -0.79942869597926       0.08998071327711
C         0.71238582407690      -1.66956689884688       0.01569330131552
C         3.57880603958849      -1.36835043984785      -2.19885584002415
C         1.30759681097888      -1.89194129993781      -1.19229738074409
C         1.58853011879899       1.95378546969146       1.53815012329436
C         3.07906896587138      -0.67703016183283      -3.45538797578392
H         2.36538638555098      -0.44722605008886       2.66531507480880
H         0.76901720068118      -1.25841232937345       2.67016859471854
H        -0.25917378461688       0.80229676608434       1.63055985948076
H         0.49170601527983       1.11324749847021       3.20646216907499
H         3.68153020764646      -0.35082058103968       0.46500413239844
H        -0.26727125217287      -1.94449852310187       0.38687472137696
H         4.47912727353980      -0.87703639288961      -1.80363387195657
H         3.83237235066084      -2.42457662125201      -2.37941976584411
H         0.94936423204586      -2.40321489007862      -2.07653067964601
H         1.75698645722019       1.77721229448747       0.46420339855248
H         2.56893821905102       1.99000174853862       2.03830722261752
H         1.10996197301988       2.93915210378920       1.63763510025128
H         2.21899094526133      -1.19495117001621      -3.90536223859679
H         3.89129915735496      -0.66316361530987      -4.19650737620394
H         2.79356015812119       0.36320889181786      -3.23975476948357
N         5.53429910715813      -0.22110486024366       1.23803136491673
S         6.65972956280719      -0.90093446029398       0.29786983967940
S         5.52679388712272      -0.38637708193329       2.85222424816192
C         6.23886846034493      -2.75745990028552       0.21942470458593
C         6.90363756192269       0.73179431722189       3.54324497561183
O         6.35513825679691      -0.45338729030901      -1.06263037272648
O         8.02030100636361      -0.85390353632369       0.80621111390186
O         5.84903220820945      -1.72149706372404       3.33743531497953
O         4.29441304668870       0.27530462241064       3.29313072026461
F         6.64317107469049      -3.24635630438636      -0.98119363281897
F         4.88796318943051      -2.95395867149921       0.30698901198571
F         6.83733100686966      -3.45670897092093       1.19285767406401
F         6.54286839970045       1.11412043254222       4.79248016180346
F         7.06226933628367       1.83642128883620       2.78108138098402
F         8.07081491350551       0.07063129867930       3.61690540186387
