61
C17H29F6N3O4S2 optimized with ForceField in AMS.
N         3.06065243278987       0.90611887256157       0.00114591623959
N         2.90976675303248      -1.30673680606580       0.17916019509346
C         1.47559112963576       2.78521268468485      -0.23877099294005
C         2.83961627634938       2.32136871502933       0.29436675387903
C         1.00307428921208      -2.64058593432148       1.01663719893883
C         2.50390906578712      -2.61738109089046       0.68600111482768
C         0.31066604734789       2.11212072967229       0.50329879442631
C         0.13707080948804      -2.31528420326484      -0.21061098778820
C        -1.04262687948945       2.54790443494762      -0.06747251439795
C        -1.35346848399109      -2.30242132598330       0.14551843449880
C         2.82505061769382      -0.12967465600713       0.83018955170956
C         3.31179722818001       0.36613351650771      -1.20849713480002
C         3.22463950231110      -1.00573774933122      -1.09650475578434
C        -2.19475519260310       1.88262461541830       0.69484297201203
C        -2.19486244659896      -1.81702468178277      -1.04136678305562
C        -3.54159301266363       2.20643012592859       0.05673332442339
C        -3.67631647650044      -1.76212746216297      -0.68205898895005
H         1.40150329068216       3.88667994718044      -0.10738327799147
H         1.40978643753666       2.56574593920954      -1.32698115995076
H         0.79556891691609      -1.90805391457985       1.82703307672793
H         0.73816363326731      -3.65134145863228       1.39606023630281
H         3.64508269869544       2.92246691479047      -0.18021413237774
H         2.89329652563265       2.49745541472847       1.39120010370207
H         3.08788789460644      -2.85207648204943       1.60165200195719
H         2.72702301885698      -3.40391184641943      -0.06826042276045
H         0.36177302738752       2.37596403696556       1.58254508746472
H         0.39125311706324       1.00908321049640       0.40593207791436
H         0.32160670505230      -3.07167852699228      -1.00467349247641
H         0.41563163484894      -1.31568346268168      -0.60735366987141
H        -1.14124929376328       3.65311229517217       0.00855102708671
H        -1.09418736673615       2.25918286995073      -1.14057524175024
H        -1.52059878499529      -1.62619177449299       1.01235463238966
H        -1.67229313346884      -3.32832940180498       0.43299281580926
H         2.50362234249196      -0.02421534467115       1.85918839565498
H         3.47606240821707       0.92922695116948      -2.11814090539392
H         3.30087909838334      -1.72390034413000      -1.90229167625370
H        -2.05866277473525       0.78078609669030       0.69677443573030
H        -2.19810415951449       2.23517276257347       1.74922868779375
H        -2.05668871002967      -2.50406395315186      -1.90446094831494
H        -1.86432307379384      -0.79986262407265      -1.34672401766662
H        -3.71413903711365       3.30361116439061       0.05441523253122
H        -3.57416275651839       1.82571791778797      -0.98642491404789
H        -4.35359969072425       1.71851814639252       0.63594577054526
H        -4.25612679889458      -1.38759257387932      -1.55172715517037
H        -3.84129947888325      -1.07528010570654       0.17512693273238
H        -4.04543513150843      -2.77535165347209      -0.41653876605087
N         6.31323475491793      -3.62974838096156      -3.22003942734366
S         7.44321568191037      -4.75252347820209      -3.60716497926204
S         6.13403385699151      -2.22748818216575      -4.05071986531506
C         8.93300383553143      -4.42408852994708      -2.68809666709217
C         4.78629156038406      -2.40122289500328      -5.20169048890129
O         6.93457583093486      -6.11633401284051      -3.23429454156880
O         7.74496658572662      -4.71455502987331      -5.08010137944356
O         7.39169843981003      -1.88530557369016      -4.80109110541117
O         5.81059701922410      -1.12051582717761      -3.08820215845840
F         9.89814232949671      -5.35592295335980      -3.01957359078292
F         8.66699471615886      -4.50301560142741      -1.33421778307429
F         9.39691349322549      -3.15809214533056      -2.98946625403899
F         4.58292636782693      -1.20495805923574      -5.86280693020971
F         3.63547258886980      -2.74803960467774      -4.51969016794586
F         5.08677702575169      -3.38730056880933      -6.12182402015031
