57
C15H28F6N2O4S2 optimized with ForceField in AMS.
N        -0.69366618922140       0.53930921778089      -0.20181683497800
C        -1.66415054655310       0.28473684450669      -1.31568207298473
C        -1.25412431689938       1.61268385694822       0.68250363462398
C         0.56512515037522       1.05125906089129      -0.84484878765260
C        -0.43679165668547      -0.69761223345752       0.61544958573634
C        -3.08047883553376      -0.08161832600378      -0.84292704934284
C        -2.67315111901582       1.31046304863321       1.20961446851401
C        -3.63812483081307       1.01010111396122       0.06542875685894
C         1.76550271761721       1.28935567935543       0.10410261929090
C         0.22785482501274      -1.87514769806849      -0.13635999852910
C         2.96654752433167       1.83233596892118      -0.68235170726726
C         0.43619087798973      -3.06401095960739       0.81065127924736
C         4.17698148306214       2.03724478548031       0.22261635499607
C         1.09652632819644      -4.23590456933465       0.09103455155792
H        -1.29899622066590      -0.50576170773111      -2.00344453460203
H        -1.76232321492574       1.19730706873417      -1.94998618087071
H        -1.30239235798204       2.58241507161458       0.13515001708447
H        -0.60488887636760       1.77814705799109       1.56899831788532
H         0.35741559047573       2.01514848553940      -1.36560254836455
H         0.89598419994015       0.35755900643379      -1.65002117094214
H        -1.37715710465162      -1.08807230941795       1.04877946180021
H         0.18817276383305      -0.44685195768462       1.50060967315173
H        -3.09233469926950      -1.06429438630740      -0.32836792701737
H        -3.74102106039854      -0.17929339315083      -1.73147044445108
H        -3.04624736010656       2.19554256169357       1.76842863184424
H        -2.66041669040817       0.46660338493518       1.93033335066394
H        -3.80559875363773       1.93568868944650      -0.52828747999346
H        -4.61731979705016       0.68514075050674       0.47850305237799
H         2.07577311536336       0.34157110976124       0.58952555099001
H         1.50081924284758       2.02430746139611       0.89154452509376
H         1.21586252033496      -1.57739258904298      -0.54229692027705
H        -0.41632806419213      -2.21373253289411      -0.97257782354359
H         2.69907950136102       2.80505229495665      -1.15005346446051
H         3.24166595008250       1.11866638503628      -1.48950739302259
H        -0.54491573795863      -3.39846288479600       1.21379850702995
H         1.07970522720041      -2.75738392008979       1.66407262308823
H         4.49234103161507       1.07185409975963       0.67198246261752
H         3.92899374730930       2.75233222403888       1.03314973281527
H         5.02127439160339       2.44668827349329      -0.37107832035461
H         2.09373144702781      -3.93727159590291      -0.29652152294438
H         0.46077704544930      -4.57726164891327      -0.75354291654280
H         1.22857902833078      -5.07996165575485       0.80011369311121
N         6.63070856598816       5.54375303780650      -0.09735735464175
S         8.11122726893643       5.26277595394551      -0.74249868607398
S         6.35978649913284       5.59196772269238       1.51879134201942
C         8.29379091070644       3.51909379767537      -1.05581610604912
C         6.32615643698834       7.28751206442831       2.05829420798984
O         8.22892693098228       6.00328921010511      -2.04446474328342
O         9.19501112575825       5.71960732746191       0.19441083384455
O         7.43188732780211       4.84676257986969       2.26457942516441
O         5.02275965778220       4.97542755030638       1.81290258173078
F         9.53166848009398       3.27850319587730      -1.62130431057599
F         7.30455937193866       3.10044997997538      -1.92523999233329
F         8.18790784509428       2.81763401409921       0.13006693021517
F         6.11074742113655       7.33236691841017       3.42265740165876
F         5.30445982914006       7.95676644287768       1.41144713851914
F         7.53143560889619       7.89541052421115       1.76350733697751
