52
C16H16F18NP optimized with DFTB in AMS.
N         3.00828311373179       0.02367852158130       0.02370382434729
C         0.57355925261878      -0.17343558028045      -0.13528642658955
C        -0.65252615227906       0.15316741005826      -0.99318067026067
C         1.84409257639874       0.35603384051727      -0.80394245516154
C        -1.93621009065241      -0.37202061344534      -0.34260662249051
C        -3.16030831667255      -0.04733314668322      -1.19640403337751
C         3.64528300288288      -1.14147692252470      -0.17247454659698
C         3.41276421001860       0.88716161506097       0.96860365261469
C         4.71920231018336      -1.49246077444421       0.61792842351577
C         4.47700302208258       0.57827140618214       1.78865450442017
C         5.14054765988372      -0.63001113266807       1.62103239247159
H         0.66086040449725      -1.25654183819944      -0.00299097172814
H         0.47065987336792       0.28069067117627       0.85543549719708
H        -0.53114293163431      -0.29706633504099      -1.98366416472844
H        -0.72357443152725       1.23775886125157      -1.12478928460956
H         1.98419642796014      -0.09580998408920      -1.78765022589625
H         1.80292875640762       1.44121507058606      -0.91637877352084
H        -2.05151440940049       0.07851544097653       0.64898345405214
H        -1.85904481664693      -1.45651515306646      -0.21099925266547
H        -3.26390982505822       1.03112099881661      -1.32142034158513
H        -4.06045093556199      -0.43008523115150      -0.71574512838666
H        -3.07061079050735      -0.50469706186256      -2.18236594531168
H         3.29362386918054      -1.76347959816525      -0.98594271828633
H         2.87629008030057       1.82538361784499       1.03976340027547
H         5.23900795552748      -2.42180062608974       0.42511118128395
H         4.79747720874326       1.29453613649010       2.53405789183670
H         5.99118719723869      -0.88220073034611       2.24111493557066
P         6.49459480754770       0.76347934521840      -2.26145370673586
F         5.47441329807264       0.89974423176103      -0.89800705978945
F         6.40121185586718      -0.91458846662017      -2.07602581302996
F         6.54959319391691       2.43746070345742      -2.41987853819426
C         4.76829379464861       0.77025501817998      -3.23745413459486
C         7.98082628932611       0.90600687126555      -0.97614533187505
C         7.63611804010465       0.46561373253590      -3.85912466137209
C         3.86074370041906       2.02631179788274      -3.09896985391857
C         8.54749577240148      -0.38391272621280      -0.32470468505902
C         7.94899630764502       1.66361915723439      -4.79419280599133
F         4.01341268369699      -0.26223200637953      -2.76441238969329
F         4.88260421695886       0.57863784219127      -4.55918178183044
F         7.57577141275101       1.66289242861735       0.06662271568764
F         9.00766528964750       1.55942030536247      -1.54149853389157
F         7.08428827842650      -0.50008917962062      -4.61586582937637
F         8.82207910296579      -0.01760445811957      -3.44033321441625
F         2.61510146442883       1.71599829829248      -3.50468710852133
F         4.28946895147253       3.03318089074759      -3.83694839810956
F         3.73609434021064       2.45266687875253      -1.83543998188203
F         9.56595701013464      -0.08914543614630       0.48360395479993
F         7.59657914303954      -0.95859296525535       0.43573319342828
F         8.96369913907607      -1.28680484586509      -1.19748212534563
F         8.55864306149807       1.25041253186104      -5.90533733661665
F         8.74371098074787       2.53916386479773      -4.18911895776057
F         6.82961268191237       2.29228708297674      -5.15194594790203
