44
C14H23F3N2O2 optimized with DFTB in AMS.
N         0.89574139779139       2.15431685703021       0.96670336127857
N        -0.48067185019716       1.75439547851234      -0.64731293208811
C         2.15471777307391       2.44152956250701       1.65528809981603
C         2.37868294631232       1.49489846303327       2.83487554019451
C        -0.98288161453026       1.51774474838774      -1.99817070326793
C         2.50347384907496       0.02714595754328       2.40403778714222
C        -1.67874604508238       0.16069628017373      -2.12664859468678
C         0.78515668462431       2.06491379837657      -0.35842308541700
C        -0.31049947441655       1.82978070448166       1.53861581697820
C        -1.17492517364446       1.57694962627197       0.52496615050858
C         3.91848058524084      -0.31714023826762       1.92702737936944
C        -0.74204348237358      -1.01344017237430      -1.82500623567978
C         3.99406800799764      -1.76948676743630       1.46118602051018
C        -1.44711828853533      -2.34876946299759      -2.04624768576804
H         2.12524676839573       3.48005783474691       2.00184626878379
H         2.94854060143306       2.33455798284720       0.90873388908634
H         3.29443901805275       1.81443244500134       3.34185348839190
H         1.55635592890894       1.60481081477866       3.54841691141467
H        -1.68089064098616       2.32363539959688      -2.24980609605952
H        -0.12252295660062       1.56801707043357      -2.67026989938179
H         1.78742841302664      -0.18244564822137       1.60358754869441
H         2.24687415068934      -0.61011127743846       3.25692288977563
H        -2.04518917452089       0.08737997061971      -3.15572096276617
H        -2.54852625545943       0.12844210214389      -1.46263153085546
H         1.54005737971073       2.38305450252570      -1.05742141329326
H        -0.46171821959622       1.81380352194782       2.60299397365442
H        -2.21413743749447       1.30063332315129       0.54293834225562
H         4.62780083666463      -0.15490237327121       2.74660178307679
H         4.20231011163145       0.34334187963164       1.10286691467394
H         0.13987045088414      -0.94860122854317      -2.46835294984764
H        -0.39815394047788      -0.94818864608103      -0.78984708206104
H         3.29276048163159      -1.94059654190138       0.64416540516708
H         3.74863081383486      -2.44978470151435       2.27869760237098
H         4.99982415305886      -1.99639830848351       1.10799040897872
H        -2.31818677680204      -2.43740694738258      -1.39453278491767
H        -0.76246790260812      -3.16692458251038      -1.82402533242702
H        -1.77708719026594      -2.44387451922898      -3.08188882185544
C         2.91528663531350       0.40016053149908      -1.29355027416554
O         3.54849425026578       1.43165490577378      -1.09556054901076
O         1.80821220104808       0.05613431651071      -0.85111263781822
C         3.55412831791697      -0.64883915596981      -2.31539067567931
F         4.65697411771965      -0.19171373117409      -2.91498024217614
F         2.66710218154891      -0.94450954749094      -3.28727803538752
F         3.87652517904052      -1.80926479233887      -1.71780947151185
