40
C10H15F6N3O4S2 optimized with DFTB in AMS.
H         3.57887359196741      -1.70954039619709      -3.65571486627644
H         2.58622340669802      -0.23804944756176      -3.75613938565167
H         1.96272985156796      -1.78227158137532      -4.41619790558510
C         2.56058648644377      -1.31848066998831      -3.63320067014521
H         0.88236843624803      -3.50158447653096       0.07850704723925
H         1.51415222824845      -3.70261620247338      -2.61288226525113
H         2.27534891235377       0.22637837249757      -1.31239748115002
N         1.98488487887520      -1.63118070639214      -2.33575831271203
C         1.95924136400951      -0.80117362790383      -1.29655830346483
N         1.50212624225907      -1.47619979515372      -0.24359131097438
C         1.25046904163466      -2.76753233453297      -0.61658292611001
C         1.55846488304546      -2.86703367548673      -1.93701423108412
C         1.42425470265146      -0.96142659356968       1.12266376441255
H         0.93087760526683      -1.72170517623468       1.73297403488349
H         2.45283859549803      -0.82889949153384       1.47697749969114
C         0.66632414047291       0.36425289725365       1.17969537588688
H        -0.35387690522731       0.21998396973254       0.80907370109967
H         1.16150944019553       1.09457756652835       0.53428839503597
C         0.64345634569966       0.89517786871176       2.61685037835035
H         0.14985049549132       0.16620652974023       3.26824851424613
H         1.67263549914800       1.02018896024652       2.96535886681811
C        -0.08617116703859       2.23389177369228       2.69544153284832
H        -1.11943580022005       2.13080670023972       2.36024339059619
H         0.41119349166605       2.97523235675174       2.06912462205305
H        -0.08788604558636       2.59349148282887       3.72413377359944
N         4.39228701678598      -0.54045376163941       0.27354121681749
S         4.79877120090230       0.82723193854348       1.01709862635262
S         5.03173330807060      -0.86629224497047      -1.16004544879504
C         4.27250635828895       2.30628065772473      -0.01548022589911
C         6.90930331409084      -0.90560056444955      -1.11653721700636
O         3.92133033215813       0.90427942245362       2.16136348410254
O         6.21267617007940       1.00171625359723       1.21204358157175
O         4.69939264290708       0.12887604132297      -2.16894463949922
O         4.64794893000045      -2.22940039779375      -1.46548191248682
F         4.09381813594589       3.34191801469018       0.78513128381961
F         3.09970252014083       2.04109436520490      -0.61079891810105
F         5.15621475234772       2.61713766927038      -0.93721460977410
F         7.31145427310117      -1.64989201192234      -2.13539018651452
F         7.33200362813456      -1.44947501039776       0.00692375589187
F         7.40594121687727       0.30545227027698      -1.24762939613523
