49
C15H28F3NO2 optimized with ADF in AMS.
N        -0.97343192457485       0.56579034546745      -0.25949716347336
C        -2.01927677039420       0.43928880261141      -1.36672990084799
C        -1.19581273076374       1.85955600845813       0.49879270775402
C         0.37856630601967       0.62598747151398      -0.93839590714996
C        -1.04881022441102      -0.62420678979920       0.70073274920930
C        -3.43962629162249       0.63095193075756      -0.87431817100711
C        -2.61782684810949       2.03097091593672       1.00886081364731
C        -3.62329430278535       1.95169976525888      -0.13707271802722
C         1.57319422524845       0.76900018039100      -0.01041372095177
C        -0.47137410261104      -1.92664908032306       0.17672098621317
C         2.87623155609495       0.72942700992564      -0.81365109218089
C        -0.66692001542938      -3.03784714259809       1.21469238541698
C         4.10599693804074       0.85813832164589       0.08056811891848
C        -0.06215475289249      -4.35101259457724       0.72403514992076
H        -1.92599813634319      -0.56899932729136      -1.80774439818601
H        -1.75256136128181       1.21494817642527      -2.10347035518718
H        -0.95060722407241       2.66643006686243      -0.21210614233993
H        -0.46780594944412       1.88233977875713       1.32067617523566
H         0.32603948702772       1.48207072945856      -1.62946251503047
H         0.45044939430518      -0.28785147255898      -1.54535015240269
H        -2.11226346135343      -0.75952495933519       0.93536347966858
H        -0.53574124167751      -0.30089957940853       1.62052372120451
H        -3.74050277147871      -0.21493751458795      -0.23820647532850
H        -4.08729820412929       0.55502088450816      -1.76196097756676
H        -2.66105415067645       3.00888592748617       1.51762231994937
H        -2.84635227120631       1.26871535574754       1.77270545640238
H        -3.45687023840581       2.79876814568596      -0.82932729140096
H        -4.65143828763101       2.04429053829247       0.24627850899406
H         1.58610263941329      -0.04289832120398       0.73537262741905
H         1.52876053283951       1.72239367614868       0.54204579770182
H         0.60986885258572      -1.82674787699139      -0.01914870381934
H        -0.97554754629001      -2.22727666902932      -0.76029747433515
H         2.86977522698420       1.54492733339820      -1.55941953568692
H         2.92475810039109      -0.21572976884912      -1.38247634807318
H        -1.74724571562850      -3.18713349023464       1.38213652893419
H        -0.21233536047356      -2.73560675432327       2.17814746326045
H         4.15889949820684       0.02472077052892       0.79883542608160
H         4.08226024898131       1.79788310268220       0.65475210853597
H         5.03104719854131       0.84961016580442      -0.51406366892080
H         1.00896368595596      -4.23288122851861       0.48922871618535
H        -0.60282004134140      -4.67594835552316      -0.17784777404475
H        -0.15934319443150      -5.13873223141896       1.48608102802902
C        -3.26891415450769      -3.16854596586488      -1.39333165542531
O        -2.86446546821031      -4.22309783510641      -0.87347077071519
O        -2.68049586742917      -2.30079872880109      -2.09784916409586
C        -4.75994502531511      -2.81800190979951      -1.03973589032147
F        -4.80655479765200      -2.27879198932950       0.24710955969531
F        -5.59548241722712      -3.88977201513187      -1.03610921835503
F        -5.33206285123548      -1.87522256004745      -1.85569755000351
