37
C11H20F3NO2 optimized with DFTB in AMS.
N         0.37164344916076      -0.17868752652567      -0.08703111723893
C        -0.49584213853459       0.63338208574714      -1.00249934330992
C        -0.41408443745027      -1.36333388862030       0.40700647225249
C        -1.80371444194926       1.07530542971623      -0.35464993835497
C        -1.71866410275038      -0.96740199900132       1.08327790982615
C         0.85280773004319       0.62935952268187       1.08967475454782
C         1.52609626638306      -0.68230461954222      -0.91896075981726
C        -2.59304291967650      -0.13095221914166       0.15161289360965
C         1.80480432810572       1.76397763269919       0.75636905605586
C         2.55561112615605      -1.51195366759359      -0.16861283909338
H        -0.71106142246319       0.00818549852279      -1.87397076522978
H         0.08300107002600       1.49914935545936      -1.33000535867488
H         0.21830672033424      -1.90597521555127       1.11223395393704
H        -0.61804992250458      -1.99446455243005      -0.46286297785453
H        -2.38113441197880       1.60832269845416      -1.11483368361443
H        -1.61179773359530       1.77276363998719       0.46444227087699
H        -1.52010495611731      -0.42270725770503       2.00923665631432
H        -2.23812607284500      -1.89128820310549       1.34978880445764
H        -0.02833832368553       1.02848198058818       1.59182755610584
H         1.33621590936981      -0.08066190800389       1.76596474490389
H         1.08551229595868      -1.27696989376961      -1.72454307609976
H         1.99997564996752       0.19528618175816      -1.36556047378736
H        -3.48489859721281       0.20964926393953       0.68251415501231
H        -2.91447011546915      -0.74075071218428      -0.69934002535635
H         2.03947217975670       2.25882449654997       1.69884411432727
H         2.73903752635790       1.40078693912413       0.33337231064115
H         1.36331127407065       2.49621450421632       0.08056340966354
H         3.31192322232927      -1.82130843002317      -0.89017290821555
H         3.04037516061324      -0.94094103006234       0.61828710777619
H         2.11481865695470      -2.40074509445777       0.27603250328357
C         2.38986238927152      -1.82066780338877       3.55410245130888
O         1.59145975168867      -1.87021462364425       2.60571360420306
O         2.78637265537633      -2.62576817079312       4.36053783871674
C         3.01910304233261      -0.30749444969934       3.69034810232214
F         3.90702291946491      -0.12015553940888       4.66600322542575
F         2.03896997554865       0.61935353683187       3.86253319222098
F         3.63546159166246       0.05623437117593       2.52559279755784
