37
C9H13F6N3O4S2 optimized with ADF in AMS.
N         0.48785686960314      -0.64254366867500      -0.69237880683569
N        -1.60199760246849      -0.07885515215987      -0.84258517278270
C         1.93638342994975      -0.68343811387720      -0.94109362571278
C         2.73247354244697      -0.60390948839947       0.35549348596516
C        -0.36039021864114       0.24324562456980      -1.22711036933439
C        -0.23462937566061      -1.57244675653949       0.02858138594763
C        -1.54715780111817      -1.22296516153806      -0.07278244672336
C         2.47753316147796       0.68230891637293       1.13447335634151
C        -2.82315682757241       0.54563471158533      -1.33782469701106
H         2.15980346538496       0.15934785239163      -1.61050330539860
H         2.14244930870299      -1.60815281966441      -1.50238319034924
H         2.50981522567549      -1.48375209503769       0.98416055060640
H         3.79758951378364      -0.68514718021634       0.08242362183594
H        -0.08058136808651       1.03380914882967      -1.91521479264378
H         0.23676359892676      -2.41151297222515       0.52299965608270
H        -2.44186814512771      -1.70307950644601       0.30192148533906
H         1.41865949981365       0.77113466437503       1.42491883710619
H         2.73985944288210       1.56474455309782       0.52968257556478
H         3.07971110258789       0.71028427303568       2.05390294204158
H        -2.57462074408952       1.52648759471782      -1.75724766573752
H        -3.24786599658135      -0.10208841484113      -2.11699834281539
H        -3.52359786450420       0.67178296594722      -0.50303105639817
N        -0.56584033432115      -0.96200609225748      -3.67097353328081
S        -1.41375652598918      -2.31124431786645      -3.91603869373834
S         0.80188125936031      -0.53629007232206      -4.40417356665132
C        -0.36232298625131      -3.78295296253489      -3.32578679930774
C         0.40979901488332      -0.15097660033545      -6.22155904117658
O        -2.49638912321645      -2.26888818804252      -2.93188538671156
O        -1.69594445796487      -2.62296751090054      -5.30832642101607
O         1.82465233412215      -1.57568701409026      -4.45654947001916
O         1.14785097237268       0.77536025717146      -3.83911656398380
F        -1.19435600836225      -4.81175485835907      -3.03260732628691
F         0.33352990498524      -3.47377969981238      -2.19167826393015
F         0.50978526499676      -4.18907500285642      -4.26381854326404
F         1.41784934865047       0.60676885268530      -6.71888984779618
F        -0.74639534396770       0.54432529607655      -6.32544225585745
F         0.31585495461678      -1.27734552975892      -6.94903480766815
