53
C17H29F3N2O2 optimized with DFTB in AMS.
N         2.34029737297823       1.83634100874340      -0.26896790554120
N         2.63109585408112      -0.03982483703071       0.74375734164901
C         1.44889303179911       3.36690105712569      -2.00476741597724
C         1.88723555585863       3.20159535764192      -0.54905506473593
C         1.19626035217819      -1.28290894236971       2.35656370137720
C         2.58420805671537      -1.11532531695592       1.73856780071482
C         0.23981630875773       2.49300283789240      -2.37199425808149
C         0.09667781330223      -1.47613699571552       1.30843409622024
C        -1.09070341139949       3.18273657364135      -2.05093722348842
C        -1.27453672693893      -1.60060581943342       1.98447556131196
C         2.04965996474490       1.15569661592599       0.83893232994272
C         3.12749102417905       1.06467647778889      -1.08196751057500
C         3.30542240608647      -0.12091543570151      -0.44412865422518
C        -2.26892845700890       2.22386593888707      -2.25012584581940
C        -2.41860063232210      -1.34211240464284       0.99820411290446
C        -3.59574573751068       2.89691845819492      -1.90552802878064
C        -3.73586048902507      -1.12961031457735       1.74195390406446
H         1.20400142779915       4.42291098238836      -2.15217151328019
H         2.29018355483849       3.13470500573266      -2.66445446520078
H         0.96612274843884      -0.41002183268784       2.97283686150901
H         1.24317938924850      -2.15475654826290       3.01556197185475
H         2.71738332336352       3.88036245966518      -0.32694543936601
H         1.06356310815325       3.41517591417343       0.13505262503140
H         3.31679879620918      -0.88006116589759       2.51766327008756
H         2.89815635347281      -2.03067212023554       1.22869725921618
H         0.30223289416829       1.54121345293501      -1.83474861932339
H         0.27937313922012       2.27137774653304      -3.44324135175817
H         0.30745374984512      -2.36462346348869       0.70238099817217
H         0.09014594117433      -0.61125723591595       0.63772198956304
H        -1.08357005931502       3.53756758046367      -1.01755396261496
H        -1.21075740699401       4.05630055632178      -2.70144869029086
H        -1.34034337932550      -0.87013859019058       2.79501478457133
H        -1.37890289827246      -2.59628103746762       2.42799777713271
H         1.43599013670420       1.50955734555819       1.67208214407596
H         3.49748069060049       1.40744090113801      -2.03149142443266
H         3.85030823551766      -1.00184522248317      -0.73523838121990
H        -2.28802525217371       1.87889563714424      -3.29018175830354
H        -2.13163212571167       1.34779664326563      -1.60809283558525
H        -2.50910130903809      -2.18231257459536       0.30034510096288
H        -2.19565783818278      -0.44407782079312       0.41198213576221
H        -3.59920342801908       3.21183195722103      -0.86197889500281
H        -3.75796841718394       3.77297436240672      -2.53559842540808
H        -4.41885023091604       2.19895701617465      -2.06060481699760
H        -4.54250690988269      -0.94492451529037       1.03177087835528
H        -3.65027952308779      -0.26927740238298       2.40715680959688
H        -3.98852110285648      -2.00841014320916       2.33730327206292
C        -0.86433616383801       1.72312926302230       2.95985464112061
O         0.36109816293600       1.72041200305658       3.11449339529193
O        -1.79916236374404       1.28649138253330       3.59159610345676
C        -1.26165360184894       2.41175059860200       1.52127040464421
F        -2.56150401178291       2.50774481106776       1.23945561464091
F        -0.70775924633648       1.65857915864477       0.51665529166354
F        -0.72913057415621       3.64611540293791       1.35463942545163
