23
C7H10BF4N optimized with DFTB in AMS.
N        -0.28308758654102       0.26683995066178      -0.54538102813239
C         1.13828395377987       0.59630991809402      -0.73135904445157
C        -1.21635501440601       1.13466068630208      -0.95981040088018
C        -0.61714847875895      -0.83569569957445       0.15530661702163
C         1.73239112580914       1.07760989765520       0.58813020106095
C        -2.56373952721061       0.88054858293007      -0.72570277354050
C        -1.93279216556085      -1.11819958982143       0.42418271827566
C        -2.92982823652869      -0.24389136853082      -0.01855832325241
H         1.65109989186384      -0.29791045111292      -1.09703684507231
H         1.20057439158558       1.39121189707870      -1.47697182492909
H        -0.88749649009235       1.97375470202894      -1.55801202078495
H         0.19414880953740      -1.47805814300780       0.47606299424476
H         1.18759129620261       1.95379986674295       0.93514933729466
H         2.77426912708826       1.34781226701566       0.42397603951595
H         1.68038800365082       0.29675477550881       1.34639047020199
H        -3.28939081719429       1.60360219258931      -1.07457669457245
H        -2.18347816557179      -2.01176121411388       0.98126352716444
H        -3.97095598618809      -0.45608826258721       0.19239078951184
B        -0.62067866325710       3.79538812795726      -0.17528185387724
F        -0.42210970485230       4.88762114607863       0.60824870301173
F        -0.89447706288753       2.62926638569959       0.65077141457886
F         0.52932400232858       3.44925013447573      -0.92251042586702
F        -1.70243111029654       3.91797224162973      -1.04656253672235
