46
C12H26F6NP optimized with ForceField in AMS.
N        -1.89547405294686       0.13670648933279      -0.05239309008951
C        -2.10563749323650      -1.07059573899401      -0.90865235575938
C        -3.02737302325431       0.11984454777575       0.92521522142173
C        -0.59579389962552       0.02771966342849       0.68709904144637
C        -3.48597412936572      -1.62591638801545      -0.61753120330982
C        -3.74260745620176      -1.21209056712458       0.80382732978849
C        -1.96657359099487       1.36994054465130      -0.90157996958367
C         0.66121774782008       0.05200752590010      -0.21621991398774
C        -1.71955944574330       2.68440224296346      -0.13918419563521
C         1.92839614652855      -0.20529704188841       0.60838817911552
C         3.17803366179383      -0.19790120569188      -0.28100760952506
C         4.44788810077349      -0.39317481230287       0.55525024145975
C         5.69357489873576      -0.41571966504897      -0.32645165035919
H        -1.37845581827499      -1.88279795083694      -0.67706846004179
H        -2.00554142499956      -0.86104667145191      -1.99843155109844
H        -3.78242605786553       0.91131782265415       0.71082610695109
H        -2.70231753082106       0.27739265615751       1.97933057580177
H        -0.58500342771507      -0.91659327267844       1.28044420873492
H        -0.50383021526567       0.84694263969835       1.43484971267263
H        -3.52306356745821      -2.73101207075599      -0.73341576809752
H        -4.23394494481122      -1.15142471300193      -1.29104411113818
H        -4.83100204101775      -1.12111066723429       1.01165546033830
H        -3.28731277215531      -1.95047217369709       1.50080641723177
H        -1.23853917781302       1.31646727750358      -1.74080051889704
H        -2.96769839277449       1.43840044090379      -1.38668999945529
H         0.58523269315346      -0.71741353233208      -1.01286453333932
H         0.76331133545761       1.04485139048048      -0.70166214321978
H        -1.96733899691094       3.54130184747621      -0.80018461843957
H        -2.35001906790884       2.75637995618377       0.77036841332005
H        -0.65315780284670       2.78469798546038       0.14885592401803
H         1.84669246715440      -1.19211677796412       1.11549692178740
H         2.02376068422986       0.58524342266005       1.38535870556438
H         3.23974710270963       0.77278805361568      -0.81936259456926
H         3.09894882998519      -1.01542626592465      -1.03149955337626
H         4.54340751590027       0.43656903783424       1.28939931851848
H         4.38642679667335      -1.35241153611072       1.11380798780528
H         5.79348410723804       0.54198395372928      -0.87984604060241
H         6.59371338586898      -0.55350449335117       0.30894328611682
H         5.63832085322318      -1.25563543352739      -1.05136600527313
P         4.26940240077154       1.54849650042187      -4.68401052362040
F         4.23176353121899       1.45717204855631      -6.39865983887196
F         3.00383473277358       0.40180381610324      -4.50194648281478
F         5.35607742892775       0.22083373308290      -4.60766115544038
F         4.39942798278124       1.78752718515876      -2.98939696433388
F         5.56399549310241       2.66516551782215      -4.84595707162392
F         3.07304356178605       2.77914212757831      -4.74280670978988
