49
C13H28F6NP optimized with DFTB in AMS.
N        -1.44107632910340       0.03252549513248      -0.18048043893894
C        -2.42329668023782       0.31887798282730      -1.28333725935542
C        -1.60858133955153      -1.40211937195935       0.24437177368006
C        -0.06989131301497       0.21173954533100      -0.78301777357280
C        -1.63237534221649       0.92736924569270       1.00772553535623
C        -3.86576866870525       0.03977223179915      -0.88602378704082
C        -3.03638253687140      -1.74642309463979       0.65092659932183
C        -4.02853797238368      -1.41800696175776      -0.46235172800080
C         1.10232992971706      -0.01949657744435       0.16494299613378
C        -1.43262128165890       2.41129792023901       0.73524682895147
C         2.39211550385542      -0.07230347191827      -0.66514235052800
C         3.61393446601181      -0.30097621211332       0.22819113170373
C         4.89756926885238      -0.37508987325850      -0.60479328406428
C         6.12192031941395      -0.60706059680923       0.27871924029496
H        -2.14196092565198      -0.32540367916214      -2.11893509578064
H        -2.29380150775778       1.35955000192761      -1.58477431667367
H        -0.93120944284702      -1.58245037160980       1.08077539783067
H        -1.30306385503827      -2.01756217588402      -0.60286955778463
H        -0.02873522334480       1.22165395256228      -1.19656682647890
H        -0.00822108946168      -0.49496199120504      -1.60964073906573
H        -2.64336553824614       0.76393826729865       1.38393843946519
H        -0.92749668857307       0.59263995373527       1.77245479684804
H        -4.48632628226265       0.24145986865308      -1.76293715954204
H        -4.19193412080219       0.71253860687559      -0.08659255410810
H        -3.31476913201214      -1.22773229920430       1.57398175769318
H        -3.05745426943809      -2.81977895703457       0.85676283968497
H        -5.04847163163864      -1.59331771168737      -0.11238162357906
H        -3.84055492014919      -2.06817943137650      -1.32050261926466
H         1.17287358391088       0.78225300546097       0.90654842740564
H         0.99032223344214      -0.96722497917310       0.69677574953925
H        -0.41395768375927       2.63460141256282       0.42471451144920
H        -2.12332465715070       2.77994368498745      -0.02074616726018
H        -1.62922779686973       2.94523354654875       1.66499142412333
H         2.50878595590467       0.86593296689824      -1.21752997217388
H         2.31203670316190      -0.88487125389682      -1.39365314329430
H         3.48620399506425      -1.23475181582504       0.78642860368438
H         3.69424043090429       0.51479976406315       0.95573303782769
H         4.81194438375425      -1.19049783790107      -1.33012686727081
H         5.02277028166352       0.55846751530798      -1.16366022605812
H         6.02469641384023      -1.54432336177524       0.82837524232749
H         7.02118431512268      -0.65655397130190      -0.33545349902485
H         6.23598259927472       0.20623639454457       0.99712565117727
P        -0.66843282041289      -2.63025243232511      -3.47774346517240
F        -1.56137950772947      -2.67242756250570      -4.83406034086983
F        -0.64958104883406      -0.95050455727152      -3.54243372408995
F        -2.07643737455478      -2.50709334847866      -2.55708788614037
F         0.20122920721812      -2.52546574396921      -2.03877847864073
F        -0.71358808691460      -4.24791018115520      -3.32552146738882
F         0.72404785428031      -2.68122114870515      -4.31325840483567
