35
C9H20BF4N optimized with DFTB in AMS.
C         2.96155358960227       0.46143684176399       1.32328902697869
C         1.70559538434683       1.24577763561809       0.93523878571823
H         1.50021952843018      -0.64493488974616      -0.92256764026019
H         0.78975930588539      -1.84106923629344       0.20207516966241
H         3.48360548826328      -1.33423958970947       0.17970220361795
H         2.63537177602781      -1.66776786944540       1.69681434611964
H         3.12427372543370       0.49750085875632       2.40208030930127
H         3.83581374590418       0.89445967826365       0.83383871354837
H         1.40026756590866       1.98360765394322       1.67780985479970
H         1.83408381056094       1.73862181742279      -0.03138610510493
H        -0.62858894740286      -0.92987165084268       2.05618045475028
C         0.13540471721081      -0.16101828252398       2.13951773446929
H         0.95779086552811      -0.55253742631416       2.73033977892303
H        -0.27849497093585       0.73028841959632       2.60883884340213
C        -0.49749498195248       0.72161249561667      -0.05489528592484
H        -0.95376420602628       1.53357755864037       0.51773271881612
H        -0.05729280560564       1.14684423162428      -0.96172452241184
H        -1.50119528276130      -1.18232910464812       0.28467143205398
H        -2.27264162461968      -2.38205147666260      -3.11276955900125
C        -1.38897879627458      -0.87940470483692      -1.84139354977485
H        -1.56410037338047      -0.06929196742078      -2.55864933337257
H        -0.37052633098287      -1.24786121390221      -1.99505769140526
C        -2.37025714435055      -2.02377605420344      -2.08802460985648
H        -3.39662582239898      -1.69090254874644      -1.92895785168929
N         0.63537779498323       0.20909929587123       0.78528575404839
C         1.36475670483088      -0.91926942103218       0.12629913917601
C         2.70129579306411      -0.97945203002400       0.85179966429628
H        -2.15601272862715      -2.84625944808253      -1.40580304694607
C        -1.54248842994802      -0.34437539366993      -0.41279557795376
H        -2.53153733625085       0.11226303948411      -0.31051706496135
B        -0.55615648774359      -3.42920714917489       1.53649395284413
F        -0.45816518745035      -3.31100937977342       0.12576774882885
F        -0.74351176467689      -4.71880251975273       1.92899021672191
F        -1.61601458824172      -2.58530356435303       1.94441170920893
F         0.64597601114977      -2.88500747224256       2.07927689807707
