51
C15H29BF4N2 optimized with ADF in AMS.
N         3.08241804505487       1.55838567273026       0.47061808086944
N         2.98220948840100      -0.57913551757804       0.07428957458939
C         1.42880643218782       3.38083436651797       0.78760327954862
C         2.83162399110400       2.86401947810105       1.10559992590197
C         1.14369843757617      -2.22761352133090       0.31584511421505
C         2.65480758890884      -2.00360294039040       0.26040740405726
C         0.31480727686822       2.57210295682639       1.44762974847183
C         0.44918679375058      -2.07881997006888      -1.03879029815859
C        -1.06417090258231       2.89710137509380       0.87520307288681
C        -1.04416872223600      -1.78814126576883      -0.89425024737254
C         2.77276582995207       0.36792705968596       1.00234390717594
C         3.47860804728966       1.36901899875151      -0.83419308743859
C         3.41744900429133       0.02839535585939      -1.08219262633011
C        -2.15905571997417       1.99883820190291       1.44680644536178
C        -1.73484066476146      -1.54669832937285      -2.23473103868533
C        -3.52269651700924       2.25473034759534       0.80947954503559
C        -3.21184312860683      -1.19461926353154      -2.07208290044086
H         1.38705482347992       4.43459588834016       1.11556266255943
H         1.29654875281931       3.36819046719048      -0.30685119250931
H         0.71130830010804      -1.50434381909772       1.03078384549391
H         0.96504134057684      -3.22932811820613       0.74457182289251
H         3.60870577142273       3.54655190088277       0.73198966580506
H         2.98634376079724       2.73374697326391       2.18876798373299
H         3.15666326799178      -2.33682019429219       1.18193645170438
H         3.10797163437152      -2.54267979803588      -0.58470539068085
H         0.32681782288036       2.72706087681244       2.54434261692208
H         0.48776923199761       1.50038791513371       1.25685640514649
H         0.60523303046172      -2.99671936419893      -1.63601816037208
H         0.89565584431967      -1.24331491243373      -1.59831973836607
H        -1.31367537713591       3.95879802915448       1.05941038479547
H        -1.02122179348217       2.75443221811344      -0.21760809241516
H        -1.15306768311392      -0.87566944558693      -0.28097750802299
H        -1.54650399583957      -2.61063311343034      -0.34783435258706
H         2.41197313136984       0.20065486923838       2.00755190168937
H         3.66482738530506       2.19754954317910      -1.50490667529549
H         3.56767948815668      -0.51847707779374      -2.00339480484822
H        -1.87112250838281       0.94520296702333       1.27704297873297
H        -2.22173490113228       2.13698964689841       2.54259129918988
H        -1.62842259441203      -2.44392750483296      -2.87200143674130
H        -1.22027934687575      -0.72002117195179      -2.75130643683214
H        -3.83873543538124       3.29963659812263       0.96015724867825
H        -3.48090141421295       2.07125402905101      -0.27566154877634
H        -4.29928730639239       1.60144701609134       1.23700294449520
H        -3.68737959208398      -1.00285405183552      -3.04654865192401
H        -3.32421913392366      -0.28369714898906      -1.46266346375151
H        -3.76877731106399      -2.00638485754205      -1.57478195467872
B         0.69230659167507       1.46230734963784      -2.44683261453752
F         1.39288347812122       0.46803857348916      -3.18913757157476
F        -0.58770701370316       1.68725762046394      -2.97496540522022
F         1.45698442203838       2.67390637137357      -2.43816787684443
F         0.56988019362831       1.00174778474371      -1.08595303334745
