20
C6H11ClN2 optimized with ForceField in AMS.
N        -0.52638440934271       0.18417915926493      -0.37878945852924
N         1.64873179454918      -0.04382181990263       0.01384873799142
C        -1.91274846570838      -0.12867661503351      -0.71316640334237
C         0.51816388225828      -0.66710259980364      -0.37106218194049
C        -0.03892621022629       1.38081058116865       0.00762246961076
C         1.31120759325623       1.23860368433493       0.25105343140664
C        -2.75270180190906      -0.22686835697733       0.55484735333211
C         2.96916206778916      -0.63531288054611       0.17935564828765
H        -2.32319753507490       0.66286434634346      -1.37666728499116
H        -1.96439738734431      -1.09643500342956      -1.25815835407379
H         0.45284975687309      -1.71905992664467      -0.62247501307402
H        -0.62038225820789       2.28782263729308       0.10865151748631
H         1.99217872960996       2.01111592210604       0.58353687425481
H        -2.35398740707636      -1.02815141517988       1.21297916351042
H        -3.80309288824672      -0.46961914937154       0.28961923045013
H        -2.73422864877923       0.73769750504539       1.10477883825805
H         2.95251951379859      -1.71043237690365      -0.10007173869658
H         3.69866604216296      -0.10314484777749      -0.46578267002955
H         3.28724141880277      -0.54377711325811       1.23874938302681
Cl        4.46840824331563      -1.53558931442835      -3.06799776993790
