43
C13H27NO2 optimized with DFTB in AMS.
N        -0.76936094414384      -0.21983973130388      -0.20889138595273
C        -1.03259335935971      -1.31930698931446      -1.19603152916922
C        -2.06102845464280      -0.12172445612423       0.53754965216715
C         0.33137057424740      -0.61793699010939       0.73510805287983
C        -1.88988199346352      -2.33802638766977      -0.45604022932874
C        -2.55309587420409      -1.55935853077028       0.69167175377090
C        -0.45826813756210       1.05366278065037      -0.93617765990650
C         1.72980346694041      -0.57936989512716       0.11742847071958
C        -0.27827721719438       2.26055004689832      -0.02315691164526
C         2.69767311981155      -1.40820994817209       0.96769815477304
C         0.04236229605931       3.48627624169481      -0.87923692345100
C         4.10737801700118      -1.36184953657486       0.38140215846592
H        -1.56403480459760      -0.87357573782569      -2.04120390644171
H        -0.08500718266276      -1.70933570022820      -1.56365662586694
H        -1.90772665889074       0.38612113069195       1.48983009189866
H        -2.74940516367791       0.46125370940015      -0.07830326838339
H         0.10006904883337      -1.63034078014364       1.07534444041863
H         0.28106352562175       0.04947205892112       1.59978655823429
H        -2.63422640085834      -2.76065772538624      -1.13292581756560
H        -1.28494150512682      -3.15934778047676      -0.06526822772588
H        -2.25867814386486      -1.96705604786384       1.66136229255701
H        -3.64193915134248      -1.59189642015796       0.62683601723805
H         0.43959815053728       0.85949363433605      -1.52755096600422
H        -1.27719078866215       1.22272224607855      -1.63871202500460
H         1.71176418695506      -0.96936664576843      -0.90290417697227
H         2.08624837079757       0.45263375973220       0.06825258200318
H        -1.19113568954789       2.44801402075034       0.55132702374719
H         0.53826444193796       2.09548702151936       0.68556210129878
H         2.71272652285985      -1.02289060087966       1.99364443070213
H         2.35245729473003      -2.44724710889445       1.00510531819972
H         0.95992327514535       3.32346690197118      -1.44459739852643
H        -0.76782560205550       3.68251427800716      -1.58161390520409
H         0.17348436193214       4.36055611893772      -0.24209991891193
H         4.78319604026386      -1.96653327019289       0.98627388976576
H         4.10715381230898      -1.74996450165317      -0.63730193659995
H         4.47884253051245      -0.33666852104931       0.36221997570775
C         0.91992761218016      -0.09614543460616      -5.29037065851336
C         0.37893299767999      -0.12617083595632      -3.84198527571866
O        -0.79987721812614       0.25048189635263      -3.67867307717788
O         1.17026292723143      -0.52013112385961      -2.95251116958579
H         0.21656378090437      -0.60447932451008      -5.94800633254439
H         1.00404471855771       0.94238455753185      -5.60900017738524
H         1.89579105493449      -0.57466580475522      -5.34325574196179
