48
C12H26F2N2O4S2 optimized with ForceField in AMS.
N        -1.61547126491160      -0.28005964391110      -0.17576500978931
C        -1.91646824756824       1.12116230443555       0.24988358518440
C        -2.62827790859814      -1.22518227982594       0.39562728595242
C        -0.28305026790998      -0.70198515436033       0.37160037829302
C        -3.35861112694825       1.55678870559055      -0.06059524652203
C        -4.09399239154779      -0.82413525334628       0.13860468044713
C        -4.35736107655021       0.60793337966872       0.58973017171394
C        -1.59805481395310      -0.38928568494836      -1.66026335367392
C         0.94098345778390       0.08066736954422      -0.16477852744372
C         2.23877295419345      -0.45143461920053       0.45805662001741
C         3.46327519128414       0.27898693145166      -0.10767722643214
C         4.75940349301440      -0.26624387668731       0.50289340463866
C         5.98063400665646       0.44951871236667      -0.06644181847795
H        -1.24186075101492       1.84494351808560      -0.25621680053293
H        -1.75157107419826       1.23636611812840       1.34592525977894
H        -2.50423219839588      -1.30057979072152       1.50129403073467
H        -2.47526618405623      -2.25164687911221      -0.01001117014743
H        -0.28239235633737      -0.61070431245428       1.48284566772015
H        -0.11221745586397      -1.78169365986556       0.15019567506408
H        -3.52484805616760       2.58228880887111       0.33416831649035
H        -3.52787227964872       1.59373239805366      -1.15788365799127
H        -4.36099748368966      -0.94357291858080      -0.93155680583319
H        -4.75995052772915      -1.50562576027079       0.71113348984586
H        -4.27142015154118       0.67496919442104       1.69695732036835
H        -5.39013681733144       0.90331976053707       0.30492214458424
H        -1.00248840043540       0.42750242204037      -2.12182467690126
H        -1.16466690365232      -1.36095088948695      -1.98379343183364
H        -2.60954388676058      -0.31413518207212      -2.10402673271204
H         1.01927290024616      -0.03474728352145      -1.26561087059763
H         0.85150455055652       1.15866326685277       0.08168353627305
H         2.20303223090883      -0.31231499653242       1.56128419283381
H         2.33169055714932      -1.53897766710739       0.24215603655629
H         3.37861187700531       1.36580560817690       0.11448315758424
H         3.49343647676616       0.14448016414137      -1.21176852499042
H         4.84817968822794      -1.35339576251871       0.28625809175992
H         4.74226972361363      -0.12668271157539       1.60590568798640
H         6.03713219826636       0.30111558339754      -1.16598221526050
H         5.92922270085571       1.53670977291510       0.15562033707220
H         6.90129219216511       0.03521842794192       0.39555811417706
N        -5.24701451710235      -3.81704293888331      -3.44793453930500
S        -3.77121742967341      -4.38594752669918      -3.02855550981589
S        -6.57222820941013      -4.77548062572610      -3.39163275405163
F        -3.24391474688415      -5.47493110852908      -4.18605358672060
F        -7.00525402207926      -5.03141736208910      -1.79470326318249
O        -2.79926087499558      -3.24580282622839      -2.94062131616008
O        -3.85097293559280      -5.08572946826796      -1.70099918576541
O        -6.27401049746929      -6.10122912669412      -4.03377013240149
O        -7.70729830847649      -4.10809424370351      -4.11389291293459
