45
C11H24F2N2O4S2 optimized with ForceField in AMS.
N        -0.83649507291466      -0.20515346029647       0.02666361306698
C        -1.17259682744067      -1.24240183624319      -0.99747046754376
C        -1.97199802169519      -0.24046959282657       0.99912423559275
C         0.43219149133876      -0.56969780219996       0.73799265145818
C        -2.59682418676571      -1.70650449240288      -0.75598239725978
C        -2.80140815232085      -1.47695206193318       0.71410263100011
C        -0.76124037312182       1.13863410991404      -0.63409668740927
C         1.70236081333698      -0.54605783980538      -0.14582964867813
C        -0.40569633046775       2.30531459067160       0.31759697595379
C         2.91038546455950      -1.07531792098426       0.63870461744285
C        -0.49262584295603       3.64512385550976      -0.40883798051057
C         4.18050291498247      -1.04734817170557      -0.20460550619324
H        -1.07047970756154      -0.87715760384597      -2.04489337740717
H        -0.52197405969499      -2.14288766361884      -0.91596711702039
H        -1.64228846217392      -0.24592219721206       2.06319930160722
H        -2.65069676477336       0.63583963088004       0.88605282148325
H         0.32949819136978      -1.58956042899186       1.17741966949900
H         0.60097530217906       0.10707166235612       1.60474293660926
H        -3.30444999632329      -1.07564271032507      -1.33854066229531
H        -2.73767304505697      -2.77568519397175      -1.02665252954365
H        -2.40368488140796      -2.34115869015329       1.29120544355225
H        -3.87488971504198      -1.32350883227037       0.95978339243261
H        -0.01913123537435       1.12442823544542      -1.46279650370161
H        -1.73891757612492       1.36781544011944      -1.11947488819577
H         1.56076070910509      -1.16780363809294      -1.05486444129447
H         1.92541768259936       0.49324848133386      -0.46521358625742
H        -1.09483669899661       2.33257948155395       1.18715408921715
H         0.63063111454075       2.19514282423416       0.69783124533592
H         3.06871355127034      -0.45118849262344       1.54515641097997
H         2.71978798600892      -2.12235117660847       0.96083204646747
H         0.21862374868258       3.66660128460948      -1.26207406834067
H        -1.52345015110198       3.81552528808488      -0.78623447141867
H        -0.23159208810618       4.46662385321082       0.29109228826234
H         5.03821245659085      -1.40430806626705       0.40391519682006
H         4.06814890385273      -1.71619427740446      -1.08283425216525
H         4.39604221023396      -0.01345640987038      -0.54972387442006
N         5.96398285729532      -3.66799980348252      -4.62721081604034
S         7.50788556361660      -3.16920632751306      -4.41369730139995
S         4.72340183960363      -2.60116859740020      -4.65835317719627
F         7.74073278934921      -2.76542589122747      -2.80595380749888
F         4.69382286418112      -1.83054247081481      -6.14365723458547
O         8.45097317274306      -4.27585612032773      -4.79012758951546
O         7.78027995103495      -1.96048418715186      -5.26448256836681
O         4.90392549277407      -1.56935317391060      -3.58132912337129
O         3.42690209557162      -3.33045324734191      -4.45048263475146
