40
C10H22F6NP optimized with ADF in AMS.
N        -1.66642642220279       0.14457069512076      -0.00208453503170
C        -2.09386022693307      -0.77186638047009      -1.15165938458745
C        -2.77619384313569      -0.01877020229988       1.02412338175000
C        -0.34299612325299      -0.28115154850890       0.60640388283632
C        -3.62058779568038      -0.92437401586281      -1.03913757927954
C        -4.04671722598866      -0.11123400910390       0.20020125973779
C        -1.61520816432514       1.56124035379978      -0.46694099383718
C         0.82949129838528      -0.27721593584942      -0.35628279023457
C         2.03796404430981      -0.95046634328070       0.30181956437308
C         3.24475029810023      -1.01517366421421      -0.63234147066407
C         4.43910728070140      -1.72375122708402       0.00127541381400
H        -1.58898978612385      -1.73376614363202      -1.00133963787697
H        -1.75141995775610      -0.31505671715540      -2.08876267019259
H        -2.72623835478265       0.81814350555411       1.73427119028553
H        -2.57508520526959      -0.97222774378235       1.53022166111823
H        -0.51680663226534      -1.30029418691809       0.97925399283152
H        -0.16988301121986       0.39574364992615       1.45972600487147
H        -3.83816013231656      -1.99187764309455      -0.89436932389451
H        -4.13812812459765      -0.58326170298708      -1.94647645521128
H        -4.42390970383038       0.88685834225391      -0.07357999443104
H        -4.83790238683517      -0.61530119275227       0.77287008204552
H        -0.85700119041170       1.65541155756988      -1.25153745558262
H        -2.59529755379543       1.84183787072990      -0.86951671881994
H        -1.35833558693390       2.20715054427786       0.38273097039510
H         0.56815996613094      -0.85131702268233      -1.26077688008343
H         1.10147811741638       0.74758894553051      -0.66505688861475
H         1.74692996461633      -1.97276036209569       0.59893039909345
H         2.31277262976475      -0.40664141819104       1.22486812072003
H         3.53243529108902       0.00935265855675      -0.93330776330450
H         2.94903670716794      -1.54526914342410      -1.55528771159073
H         4.76124729827726      -1.21052541100449       0.92172884039745
H         5.29726092965561      -1.75422238256631      -0.68646927091132
H         4.18023928540978      -2.76102001761980       0.26692167853322
P        -1.36249736069230      -4.33583688701898       0.39541021302327
F        -0.31037060975167      -4.56474523978439       1.63406198117049
F        -0.25254966774480      -3.28579246387367      -0.32475739306511
F        -0.73045288331003      -5.58516370204366      -0.44367771479166
F        -2.41392150581319      -3.99566514116312      -0.85264858571015
F        -2.48343798323656      -5.29074561584999       1.10308628744087
F        -1.99830901851926      -2.99411654360634       1.22215309637776
