28
C8H17NO2 optimized with DFTB in AMS.
N         0.34526603405252      -0.18576018700459       0.12431064643157
C        -0.05115474873539       1.07622106425299      -0.57610142768952
C        -0.89931645914932      -1.04080558403786       0.20407560517092
C        -1.52009225772588       1.26124407005068      -0.22510148644010
C        -2.06208739989553      -0.16784697095809      -0.25840244850956
C         0.83463661313548       0.11651981710860       1.49836304256829
C         1.42562478777130      -0.89054763158305      -0.61197121626778
H         0.07225091622036       0.92221618668289      -1.65107609567572
H         0.59250976487349       1.89384241154662      -0.25066959484896
H        -1.00438744959294      -1.36815817134455       1.24613921829100
H        -0.75310064992896      -1.92266955789871      -0.41815588688085
H        -2.01790330023134       1.91194147527685      -0.94505050443091
H        -1.62548108943927       1.69484533716300       0.77222941365230
H        -2.92511325434697      -0.28713095177910       0.39776273304867
H        -2.36232802957642      -0.43131385386198      -1.27626852827043
H         1.70440570030949       0.76852723448774       1.43279072469176
H         0.03871495841046       0.59557068652899       2.06275656806343
H         1.08973908438367      -0.82792861365537       1.97620324934316
H         1.08242617253075      -1.11697175929254      -1.61945724121563
H         2.30576939236351      -0.25036200609695      -0.64806192692902
H         1.63604822317810      -1.81444148841943      -0.06690491391555
C         0.41308777741594      -4.39441150116483       3.22271660927585
C         0.28899890950354      -3.09817392355402       2.39187519497537
O        -0.35283236884876      -2.15909853837630       2.91251916089935
O         0.83345775787198      -3.08509047110025       1.26410687922154
H         0.89718266033824      -4.16346033716814       4.17091300491723
H        -0.58508170293598      -4.77843676065571       3.42940511955136
H         0.99246940904791      -5.14099454444691       2.68326770237219
