46
C14H12F18NP optimized with ADF in AMS.
N         2.97817978796676       1.39314966583277       1.78858314128072
C         3.12001746288178       0.39488744812679       0.68502123201173
C         2.72979648555585      -1.02581904679600       1.04610206360950
C         3.18855271827237      -1.97274268224816      -0.06313597755505
C         3.61054686363050       2.57983273390963       1.64100073837859
C         2.26525957141668       1.12782504810251       2.90154211823162
C         3.52115504479955       3.55365352557864       2.61171173894754
C         2.15128266286543       2.07210590170343       3.90443138998695
C         2.78207847118413       3.30155397806623       3.76343470320461
H         2.51490165810928       0.77662545553054      -0.15405105114478
H         4.18226982744130       0.42871753614873       0.40677130863908
H         1.63764448092611      -1.11043893904686       1.18303503662651
H         3.22456900170200      -1.30996534006673       1.98701467362801
H         2.73263334620206      -1.71477826485651      -1.03157469513707
H         2.90866790550852      -3.00716919972109       0.18003749570833
H         4.28327213045171      -1.93461555858055      -0.16872406362364
H         4.20057958519508       2.69617209482654       0.73469998890930
H         1.81408834997919       0.14341687254770       2.97107682639903
H         4.06454450109193       4.48805844592810       2.47672118610913
H         1.59145590238118       1.81956615815247       4.80436670241434
H         2.72926192704495       4.04530068387156       4.55869304878671
P         6.72445681215135       0.84352069951555       4.04801863674350
F         7.23467617262327       2.24000847994928       3.28840464393443
F         8.28299204765746       0.32068652013167       4.22319587749203
F         5.09473119231261       1.28369928031267       3.86585842595158
C         6.84298456210436       1.95434781911027       5.69680710273157
C         6.60014546434727       0.10833925939136       2.19718489550519
C         6.18023653618838      -0.87041658814210       4.95555357601989
C         5.89995228448295       3.20081190750201       5.82671206726547
C         7.88476484259956      -0.43880247668179       1.51439849373627
C         4.69780982809583      -1.08507503761282       5.38249907802704
F         8.12090454070139       2.45530404943517       5.77270905930283
F         6.61184076668678       1.27968232319088       6.87675964438310
F         6.17067076244626       1.12813516593783       1.34039400201393
F         5.63457256936541      -0.87338356631399       2.06010849902720
F         6.92368938859553      -1.05130329310243       6.09439555961905
F         6.47753743625068      -1.95679204174518       4.15515241181682
F         6.31577806948257       3.96911165013266       6.86881886310030
F         4.61893212707613       2.82000246841347       6.10028873780761
F         5.86650846599728       3.99733923047069       4.72966223800228
F         7.58830306507708      -0.80097156550093       0.22342843432893
F         8.84315210334789       0.50932773980389       1.46385542770141
F         8.36978459698725      -1.53083741521893       2.13671574574922
F         4.56993931978424      -2.24874330425548       6.07250751872797
F         3.87133273646042      -1.17829419034421       4.29558835349767
F         4.23271902827167      -0.08654450588925       6.16666168290353
