46
C12H26F6NP optimized with DFTB in AMS.
N        -2.25712434529196      -0.39557123964155      -0.50498888175427
C        -2.54956029886460       0.93396493869983       0.12849041996766
C        -3.35852770700938      -1.36521778847504      -0.17482706941310
C        -0.98706435627079      -0.98769424458752       0.06006745342367
C        -3.92400275021859       1.47799272441530      -0.24259659663166
C        -4.73831497272161      -0.85864466665546      -0.57189155290418
C        -5.02759267455202       0.48075933294122       0.10130797089700
C        -2.10698991947855      -0.25533671081822      -1.97637594860162
C         0.21285998084212      -0.04798970504720       0.09732241988724
C         1.42003684113012      -0.81876352628238       0.64665912784170
C         2.64793441451834       0.08959695810032       0.75277391845300
C         3.85049362291421      -0.67333387490421       1.31712730698647
C         5.07807043814957       0.22873770042591       1.43052065022998
H        -1.77431295355835       1.63069262653650      -0.19469594261061
H        -2.48085266505946       0.78901762039415       1.20763437122418
H        -3.32446419742137      -1.52402589590043       0.90515568088095
H        -3.12404199261989      -2.30373483024129      -0.68282443774816
H        -1.21413118243811      -1.30963108452405       1.07587415432656
H        -0.76391903649548      -1.87127407057902      -0.54456221590796
H        -4.06737641919123       2.39830627219208       0.32947026993639
H        -3.96458280799412       1.73802385155406      -1.30533714668654
H        -4.82728052931926      -0.77014109355790      -1.65921144413285
H        -5.46389516775970      -1.60502452399622      -0.23822571455464
H        -5.06813788156060       0.34148356334901       1.18424214389785
H        -5.99278853805123       0.86598264632632      -0.23559402178276
H        -1.28270514799935       0.42326113177496      -2.18540704063470
H        -1.89780149600423      -1.23425111497386      -2.40429588552540
H        -3.02144134993501       0.14329859389879      -2.40734482089573
H         0.44449671252796       0.34395626850970      -0.89794602871201
H         0.00705994457081       0.79194558558108       0.76462830329412
H         1.16957120082588      -1.21181231213215       1.63669173194566
H         1.64352021846667      -1.66815023076104      -0.00814963560448
H         2.41527273529679       0.93810671214698       1.40471072057192
H         2.89649501617495       0.48705912531239      -0.23791976499171
H         4.08123893384672      -1.52320495635138       0.66554207858536
H         3.59684119994210      -1.06889514013820       2.30595714258093
H         5.35936505649677       0.61823484002918       0.45082725212989
H         4.87324885969806       1.07086849335920       2.09290781303989
H         5.91925357609362      -0.33457304473218       1.83498323753488
P        -2.38176598588822      -0.80197052280244       3.73942703568675
F        -1.15347433994204      -1.36579504785162       4.64092762765559
F        -2.20190043025244      -2.09167455141696       2.67860986261537
F        -3.47956642382863      -1.64883172819442       4.58525410821074
F        -3.60289966363449      -0.23331819836212       2.72472022358089
F        -2.56739937353433       0.50409623537307       4.68922070457601
F        -1.28433706299968       0.05536285150685       2.78900637623172
