67
C19H28F18NP optimized with ADF in AMS.
N        -2.80688473553124      -0.36304870621739       0.23081714487318
C        -3.19009663493221       0.77583926150817      -0.69280899315302
C        -3.41239202508664      -1.65963986551625      -0.30185691373704
C        -1.29056040900471      -0.47189872727359       0.19523194762638
C        -3.29968822350118      -0.12928503814124       1.65237257779300
C        -4.68835089525083       0.90130932859913      -0.90618253471960
C        -4.90852444781351      -1.56633971728693      -0.54705296783553
C        -5.26852132076075      -0.39903562356299      -1.46118876001154
C        -0.68818557874845      -1.50522617980533       1.12508806569043
C        -2.71837611650141       1.08521535944460       2.34178511869521
C         0.82376985353518      -1.60048875669443       0.90716276835107
C         1.45408304758515      -2.63873698118301       1.83219823945558
C         2.95826685431190      -2.79797244463510       1.63388425736983
C         3.54664275743118      -3.85331232895158       2.56707764207516
H        -2.68782878186439       0.55963225480373      -1.65019464271264
H        -2.74892239430595       1.69230675369244      -0.27698485778117
H        -3.18886851171255      -2.44442746087199       0.42928758995226
H        -2.87364794183604      -1.86720971345100      -1.24092214564201
H        -0.90415020388751       0.53513758480660       0.41532297927835
H        -1.04048877709230      -0.70095114533081      -0.85346361814715
H        -4.39065389923148      -0.06135862209336       1.59829266520486
H        -3.07221421401744      -1.04930744944339       2.20211478388636
H        -4.84966897167303       1.73875669883750      -1.60538605078537
H        -5.19152668154397       1.18021990660518       0.03484112996013
H        -5.44639641911093      -1.50225315705532       0.40999074706477
H        -5.21160384825124      -2.52919489640254      -0.98999491033907
H        -6.36134372441876      -0.31584894044076      -1.56699499349088
H        -4.85688091882033      -0.57518805696188      -2.47249334811326
H        -0.88568912996191      -1.25228585997758       2.17788652772108
H        -1.13441461678976      -2.49429258720069       0.95410293413223
H        -1.62843780184709       1.02500406501663       2.46694566622951
H        -2.97354465535015       2.03275554443389       1.84581153424318
H        -3.15783680881278       1.11438707110265       3.35085707750513
H         1.29471702577107      -0.61386747684849       1.07888568689472
H         1.03115059421848      -1.87111038293875      -0.14560297478052
H         0.95834615952831      -3.61304723403301       1.67336864116383
H         1.24822715143258      -2.36390209405164       2.88224110354612
H         3.16143641728555      -3.07395118889577       0.58255946303746
H         3.45751278105734      -1.82596605544123       1.80376953479746
H         3.07557057550492      -4.83383181215175       2.39287340386149
H         4.63130903715004      -3.96560046895945       2.42057419429352
H         3.37017266215089      -3.58504923253187       3.62101230032689
P        -4.07768346562821      -4.20590999695668       3.41028385674832
F        -5.11742519020923      -4.34577636350450       2.11004293775690
F        -5.04028355316298      -5.17361658436314       4.33869305472997
F        -3.04781340912002      -3.16921730630661       2.51035688766482
C        -3.17496265706239      -5.78073408210401       2.58060776617960
C        -5.12613182676663      -2.56045517298018       3.85906894952990
C        -2.87026974463991      -4.06633736219422       5.01482473627147
C        -2.55454379026740      -5.62533517152017       1.14934762835000
C        -6.42324522143197      -2.69423838806347       4.70716277388175
C        -1.47200067690188      -3.39963168412675       4.88212015783443
F        -4.11130975638314      -6.78088312680650       2.46101987794066
F        -2.12547885195024      -6.30549492085336       3.30463917872608
F        -5.57480981543739      -1.97533328702239       2.67446510128793
F        -4.35655956154856      -1.57831037215117       4.45295437191136
F        -2.63805967339179      -5.31822154465753       5.52935699594878
F        -3.50348724568369      -3.37025407553924       6.02371592534154
F        -2.20636346141697      -6.85353278726342       0.68073718935575
F        -1.41577743218910      -4.87543220858143       1.17942710132072
F        -3.38889074262550      -5.06689788780585       0.23668078635959
F        -7.00864962932005      -1.46017549157223       4.82483263071077
F        -7.30950003920114      -3.50874132101563       4.09222453454442
F        -6.19091458071624      -3.15181292756133       5.95217426354093
F        -0.79259532531676      -3.49718615577878       6.05695896041474
F        -1.57165682209039      -2.07102231468218       4.58883186653763
F        -0.71952608044250      -3.98563103939060       3.92303769313158
