43
C11H17F6N3O4S2 optimized with ForceField in AMS.
N         1.00261024715832       0.36292695225757       0.48323783154953
N        -1.00078906270883       0.36677119701664      -0.47956218261837
C         2.25329065688835      -0.11445291890448       1.06959004065342
C        -2.25288932782096      -0.10653750265070      -1.06556150556662
C        -0.00068095222096      -0.39540445434423       0.00219763677418
C         3.41738505699066       0.05362632950554       0.08752848450110
C        -3.41760234053835       0.06912771011883      -0.08627545351596
C         0.62714097341006       1.64472458522060       0.29751118150594
C        -0.61953533407629       1.64710435389749      -0.29664007065662
C         3.20976626591780      -0.76015989379902      -1.18928501463277
C        -3.21607375420755      -0.74580618342962       1.19075852339361
H         2.15755913948950      -1.18637963256954       1.35131228329726
H         2.46700012404874       0.45638370763081       1.99919552258470
H        -2.16132592624081      -1.17975218646596      -1.33755198317543
H        -2.46237951185789       0.45900830947467      -1.99936420715311
H        -0.00286118887909      -1.47845289023563       0.00231888301200
H         3.53741311244321       1.12706873483115      -0.17369999441546
H         4.35330647047861      -0.28710335872799       0.58029783457918
H        -3.53251100285185       1.14329232116195       0.17399183263469
H        -4.35409284647057      -0.26759715932641      -0.58083122897090
H         1.21478656344680       2.51082918269013       0.57385680479396
H        -1.20304715109135       2.51527632227969      -0.57530824151173
H         2.33635648646356      -0.37531602448871      -1.75713965052797
H         3.04467438863677      -1.83124310762048      -0.94470455631273
H         4.10944899884558      -0.67634749637258      -1.83361721410133
H        -2.34169192465183      -0.36512406739235       1.75992508184573
H        -3.05521347338375      -1.81761285973559       0.94615023086550
H        -4.11646427505314      -0.65830471540609       1.83349760648533
N        -1.21570706018558      -5.04761057216661      -5.23313972312409
S        -2.42242469249534      -3.99638764350961      -5.58507615184742
S        -1.43460242198579      -6.67151452666353      -5.20378830341780
C        -3.21794890389893      -3.49742939966912      -4.07263587710216
C        -0.86910764865977      -7.36017975209635      -6.74515125529908
O        -1.83940591454725      -2.78121188369731      -6.24920827627261
O        -3.43313068984528      -4.63461900088812      -6.49770977102320
O        -2.88583618718343      -7.01215169417827      -5.00409699709576
O        -0.62104687304876      -7.25810129203847      -4.08499317528855
F        -4.20333146537117      -2.56995669623832      -4.35077765840515
F        -2.28209727749203      -2.93255776203860      -3.22922022216343
F        -3.78431290948722      -4.59581237857159      -3.45499803454914
F        -1.06151750521950      -8.72813143888798      -6.73873048924212
F         0.47592100893403      -7.08800729972134      -6.90671251685964
F        -1.57679159687871      -6.80332311325046      -7.79315352272697
