32
C8H15F6N2P optimized with ADF in AMS.
H         1.57280709566135      -0.94268205030716      -4.78601587915853
H         0.33031306453004      -1.86313513838395      -3.88408148051218
H         2.06252743013377      -2.12402471930230      -3.49159351540145
C         1.31480419375667      -1.38752041037880      -3.81784556234473
H         2.28257463145325       2.20347357446477      -1.02046268113278
H         3.02327355242078       0.79268358930440      -3.30933141886418
H        -0.43275247626993      -0.97797450443413      -1.64028599582408
N         1.25297213827234      -0.32896442117786      -2.81318830570395
C         0.36757226982946      -0.27224924322637      -1.81323385568924
N         0.68022176398595       0.76354734297169      -1.02676872645681
C         1.81663087303591       1.36521475478961      -1.52199796425736
C         2.17695173659133       0.67823755165686      -2.64380598803604
C         0.04637238745523       1.04792098252301       0.26868183736932
H         0.16822936817522       2.12674527582851       0.45494337393307
H        -1.03180102232249       0.85125539741831       0.15327930701560
C         0.65914652129228       0.19983497476904       1.37453578525415
H         1.74153723874778       0.40380463791234       1.43113585498072
H         0.57815097622603      -0.86512516877898       1.10309506631531
C        -0.00465859903871       0.45295834137095       2.72426313005139
H         0.08126872242849       1.52231028106445       2.99286553216597
H        -1.08578499866410       0.23209237440135       2.65085868519604
C         0.62389809328373      -0.41027054147706       3.81667769021005
H         1.69517040106482      -0.18081971830748       3.92566083249096
H         0.54491104870295      -1.47773638968906       3.56036437766398
H         0.13573421119008      -0.24722051786780       4.78947407793614
P         2.78517918120934      -2.81191764775278      -0.33033513929708
F         4.34122496315659      -2.91155238919487       0.16120096324643
F         2.89552239420017      -1.14295250911896      -0.36473140667184
F         3.27102326430054      -2.83471616311595      -1.92989756061655
F         1.18371827388769      -2.67200923099510      -0.85745246781140
F         2.63041711778810      -4.44022058694672      -0.34324232605452
F         2.25293784301535      -2.73297707151996       1.22970999050360
