28
C8H18ClN optimized with DFTB in AMS.
N        -0.24851286100990       0.22373101710819      -0.07337009268492
C        -1.18925412525290       0.31889883722800      -1.23794544643541
C        -0.61484567714760      -1.08867942877677       0.55024776381664
C        -2.51059975619759      -0.25568722577575      -0.73680290370376
C        -2.13444489974014      -1.17433218070445       0.43669991082907
C         1.16654276821614       0.24906815968525      -0.57139021214075
C        -0.49114405338790       1.34145120468686       0.87198270626823
C         2.21394884774694       0.03258979485027       0.51630687659663
C         3.57974914556670      -0.16787260236760      -0.14122869383085
H        -0.77775518252423      -0.31872414455527      -2.02709975219938
H        -1.25139944021860       1.35448598338300      -1.57340209341041
H        -0.25387762042640      -1.12595776583268       1.57770138626953
H        -0.14250267358588      -1.86560189108385      -0.06047482618650
H        -2.99475408772503      -0.81501513891400      -1.53870021192745
H        -3.19158299582714       0.53461619188841      -0.41159622580491
H        -2.61918373306553      -0.84507879322097       1.35904786316361
H        -2.43108313412970      -2.20626484902772       0.24389550298418
H         1.31294710039241       1.21431655083451      -1.06399064887497
H         1.23688148499593      -0.55118681727126      -1.31836302596221
H        -0.22781922262496       2.27933693834400       0.38560540413168
H        -1.54189820076926       1.35496636934084       1.15262755406681
H         0.12027670286539       1.20120764080495       1.76081657965363
H         2.25806845133990       0.89101186285249       1.19438086570324
H         1.96761054493236      -0.85495307739069       1.10458478392262
H         4.33859470549160      -0.31907514996178       0.62577611545723
H         3.56012292817212      -1.04153982949631      -0.79225281417868
H         3.85094417095641       0.70545762747969      -0.73512548033569
Cl        0.31287348065684      -2.34994753810735      -2.24264419518721
