34
C10H22ClN optimized with ForceField in AMS.
N        -1.45205491291349       0.41244044228495      -0.12033530760811
C        -1.78045552797146      -0.86858143431659      -0.81242154005165
C        -2.53740992015051       0.61601592714858       0.88201882289991
C        -0.13813854805446       0.33139755586518       0.58908553968299
C        -2.98899518270403      -1.48296966643479      -0.12643867381421
C        -3.67823903775972      -0.31550132638401       0.52501267359710
C        -1.46475199433752       1.54371427515243      -1.08360127166963
C         1.09948073890087       0.26986169074094      -0.33818422524502
C         2.35657366881245      -0.08584608887104       0.46581248170330
C         3.60795482518726      -0.08043282591556      -0.41921243827918
C         4.84857382441208      -0.45381994969913       0.38757668633647
H        -0.94874138388434      -1.60635105064767      -0.78943331596493
H        -2.03718327489324      -0.70994786718948      -1.88601768406511
H        -2.90151044544330       1.66869384868050       0.92881289169736
H        -2.20697939999740       0.35334771178351       1.91483973204036
H        -0.13197590056426      -0.56569952342469       1.25176012852066
H        -0.01442777390551       1.21777544992916       1.25299547156278
H        -2.65162838874151      -2.19997192757917       0.65552507416629
H        -3.65621950168148      -2.00465612962704      -0.84633937867752
H        -4.35677347288458       0.17805648632457      -0.20540930231064
H        -4.25536044614528      -0.62889019053696       1.42222786457179
H        -0.79346665866906       1.34751373510396      -1.94776815779120
H        -2.48650339168811       1.70420757929730      -1.49596112329840
H        -1.13945888005061       2.48772090786881      -0.59170816261595
H         0.96044520865664      -0.48417254210962      -1.14035962595896
H         1.25360142996233       1.26150924914094      -0.81547702709598
H         2.22994134429243      -1.09647682309984       0.91313251136090
H         2.48710912406914       0.65085137191977       1.28903510813424
H         3.75444205213233       0.93115652417638      -0.85670602580873
H         3.48525121494808      -0.80964052652057      -1.24946066330497
H         5.00492154381589       0.27313085610759       1.21307005775337
H         5.74153934017157      -0.43963533384820      -0.27208963516356
H         4.73844771946284      -1.47365600061363       0.81438410544762
Cl        0.18462008881595       0.86038619409345       4.30607519284863
