26
C6H11F6N2P optimized with ADF in AMS.
N        -0.01476335214957       1.04669406430927       0.71879720189897
N         1.78481847921997       0.52016815063607       1.80937427107677
C        -0.92003617484183       1.32891546255442      -0.40552834349886
C         1.24669502316491       0.61914268951053       0.58855366699947
C        -0.28208882915207       1.24771752519213       2.05565536805409
C         0.85162416222939       0.92230766357649       2.74186100985322
C        -1.42646696695702       0.05349952729581      -1.05967839238977
C         3.20319665122159       0.29699551825971       2.07888360291370
H        -1.74429301182610       1.92752290301807       0.00771510953348
H        -0.35398044572325       1.96379991306825      -1.10335692118932
H         1.78525292591931       0.49498778315587      -0.34350733842860
H        -1.24090961628717       1.61618741712512       2.39793925289022
H         1.07853054272431       0.95688203873758       3.80009868572242
H        -0.59719159703557      -0.53193034080895      -1.48341661117405
H        -2.10790792300198       0.31134351650987      -1.88288606396538
H        -1.96973082913748      -0.57599830604637      -0.33970011755111
H         3.30104444049932      -0.24342211272974       3.02759105455932
H         3.63673531538169      -0.28842645256353       1.26221322736294
H         3.69978815039073       1.27514310469012       2.11365714565022
P         3.10618476912903       3.28636547254039      -0.65747410130728
F         2.49691904070677       4.79511846302378      -0.80946916130434
F         2.32711689148329       3.12293812825691       0.82118023946814
F         1.72837413928232       2.65016089904703      -1.39848284644398
F         3.66234061073410       1.70029480345027      -0.48517555906196
F         3.84198315542035       3.38093564935967      -2.11244282298238
F         4.44361915160496       3.83194125283125       0.11507544461410
