23
C7H12N2O2 optimized with ForceField in AMS.
N         1.11244510502510       0.01266239526170       0.00217789076800
N        -1.11089026739973       0.01161589694796       0.00422600255788
C         0.00116833125216      -0.74843665055032       0.01062196493339
C         0.69069206132607       1.29206129805972      -0.00337335649771
C        -0.69031352349429       1.29141490131029      -0.00219406207037
C         2.49556562941075      -0.44782423243832      -0.00098876398212
C        -2.49365987777778      -0.44998045448176       0.00372991092447
H         0.00191633203954      -1.82904885366215       0.03046492927984
H         1.33688256839256       2.15991198716161      -0.00568470381019
H        -1.33729166730739       2.15868902435561      -0.00325816159545
H         2.53722669429863      -1.55825143824252      -0.00474327149085
H         3.01449936222835      -0.06741571237093      -0.90596796880401
H         3.01711544003189      -0.07175379412208       0.90405802100981
H        -3.01506050961448      -0.07053618121930       0.90749163930790
H        -3.01337306504443      -0.07355463330905      -0.90246166263058
H        -2.53450928586435      -1.56044412347579       0.00454714828274
C        -0.83410819025632      -5.60448257253724      -3.00259021428902
C        -0.25844731784890      -4.25769243369817      -2.69982522108691
O         0.07979109373231      -3.51687899271215      -3.60839833417762
O        -0.11187305108588      -3.90216876230316      -1.54263197361474
H        -1.44465653959251      -5.56008090004472      -3.92893982334349
H        -0.01047221171054      -6.33500045956417      -3.14212247383487
H        -1.48143215954075      -5.94276059886503      -2.16571041033613
