31
C11H14F3NO2 optimized with ForceField in AMS.
N         1.10939790439126      -0.00987104209880       0.52772637498795
C        -1.25630559261709      -0.00035316875954      -0.13519291565066
C        -0.26773866213405      -0.01946256516987       1.03533687957332
C        -2.70650595266346      -0.00398291235149       0.35949072445309
C        -3.68409262297690       0.00839648846360      -0.81202782664832
C         1.73816085609928       1.18253112606331       0.29307854926420
C         1.73927683903464      -1.19264076599326       0.25117328256547
C         3.03106661029629       1.21034821239624      -0.23524354098012
C         3.03222247383662      -1.20055793423640      -0.27773596953590
C         3.67879515323284       0.00992091167903      -0.52379495272287
H        -1.08067149376044      -0.89336275135650      -0.77468277036368
H        -1.07700484282132       0.91065060263326      -0.74768773144603
H        -0.44001802728419      -0.92390747429110       1.66106369574825
H        -0.44115237505017       0.86301320212684       1.69142199941495
H        -2.89159496711565      -0.91258044465224       0.97307865137101
H        -2.88929021074236       0.89241649773736       0.99134788187812
H        -4.72651625852144       0.02536383720836      -0.43022420108529
H        -3.52179169501281       0.90956782885434      -1.44144175346035
H        -3.55046873761780      -0.90310705226889      -1.43228481110964
H         1.23676996939720       2.11989566640025       0.50349085498137
H         1.23880687849179      -2.13729869139506       0.42851552875456
H         3.52261148770348       2.15556813130705      -0.42535650666871
H         3.52472466282130      -2.13800376776384      -0.50092979681437
H         4.67763548793450       0.01776131621042      -0.94051163613020
C        -0.98544798547148      -0.96187470507910      -5.56643679910636
O        -0.09824409605615      -0.90330795684779      -4.72957018102723
O        -0.70825005595151      -1.24708644675094      -6.72039256472557
C        -2.40953241357738      -0.68291645025194      -5.18697920661402
F        -2.86599283065522       0.42106020710173      -5.88308839447665
F        -2.51007444375813      -0.43185637401795      -3.83041404001081
F        -3.19648320495165      -1.77571541709708      -5.50156905391552
