25
C7H16ClN optimized with ForceField in AMS.
N         0.83571790007100      -0.00734915027490      -0.03129176170299
C         0.11986321491735       1.24496233146250      -0.41372032429300
C         0.04667534828356      -1.21263846885835      -0.41961462651616
C        -1.32175419505354       1.31344435914482       0.12167775435505
C        -1.39635703894113      -1.19660982299461       0.11619852609088
C        -2.11862322427021       0.08150583181154      -0.30314436489537
C         1.14610024839944      -0.02058014701152       1.42154024555226
C         2.12757751522985      -0.04406493249458      -0.76110200211425
H         0.06610406033588       1.33341655760799      -1.52398033286363
H         0.67397855477627       2.13986604042093      -0.04976429772467
H         0.54649642615649      -2.14096615336898      -0.06076734432247
H        -0.01123602580015      -1.29281503819915      -1.53030419617856
H        -1.81722052715147       2.22060997427950      -0.28604399380501
H        -1.32719034948257       1.40982678334985       1.22745032234359
H        -1.40889880959000      -1.29304188099434       1.22171096259752
H        -1.94412387056867      -2.07202677761821      -0.29380887026941
H        -3.12367982182674       0.10952846975706       0.16966345649424
H        -2.25716194477547       0.08747450855174      -1.40665969445423
H         0.23328550743788       0.00622329902030       2.04861329615491
H         1.71095361917920      -0.93841348830032       1.70042051525513
H         1.76660967170706       0.85914307066212       1.70461756839331
H         1.97121995419297      -0.03733376745187      -1.86353457231609
H         2.75842050291720       0.83721244252581      -0.50551687948676
H         2.70551536111485      -0.96187436235932      -0.50899662561106
Cl       -0.72373734035906      -4.17711508816800       2.19247297401678
