47
C13H28BF4N optimized with ForceField in AMS.
N        -0.69807673776262       0.53417845878037      -0.20485087825328
C        -1.67273654041940       0.27888755779504      -1.31440583769946
C        -1.25029582015420       1.61323610951467       0.67801545186813
C         0.56115694426231       1.04108791907905      -0.85209263529259
C        -0.44268303698569      -0.70217950899542       0.61456049202789
C        -3.09029657148292      -0.07585294975526      -0.83693287655860
C        -2.67292326592790       1.32930074982794       1.20367690724987
C        -3.64181284068211       1.02313924057887       0.06515927185130
C         1.75817494872392       1.28943098652198       0.09879256098316
C         0.22439733573906      -1.88191940586482      -0.13458278415818
C         2.96699891396515       1.82677859703588      -0.67941758673576
C         0.44250513199785      -3.06896264252372       0.81342981872313
C         4.17279842669059       2.02110099650550       0.23565794493962
C         1.10103659891372      -4.24314258690909       0.09415296452213
H        -1.31427948530494      -0.52022886213898      -1.99533636933986
H        -1.76583676097116       1.18696693734741      -1.95539081703733
H        -1.28409772565119       2.58427265788101       0.13194480215531
H        -0.60241275801228       1.76806354102111       1.56770745007675
H         0.35293103363584       2.00024296704000      -1.38077045901253
H         0.89241197951679       0.34153475314950      -1.65185285662919
H        -1.38427514638071      -1.08898284989731       1.04888945075362
H         0.18242071402874      -0.45035300232681       1.49905159474804
H        -3.10792713294681      -1.05511397816669      -0.31678501504128
H        -3.75335920538275      -0.17494655958205      -1.72382679029532
H        -3.03918302177331       2.22612012390995       1.74911073977786
H        -2.66745855716540       0.49474970080351       1.93516305716707
H        -3.81310738233174       1.94457444823006      -0.53389274615500
H        -4.61905600265062       0.70162464627881       0.48515916615905
H         2.06474450108234       0.34690519293075       0.59496111479055
H         1.48963966519874       2.03193555018189       0.87710601884887
H         1.21043795974226      -1.58274900925361      -0.54259036878226
H        -0.41890243582481      -2.22517756098421      -0.96931074332584
H         2.70947548294639       2.80207120785952      -1.14632207632021
H         3.24405844500093       1.11402773092254      -1.48605729395561
H        -0.53408211688121      -3.40505351459883       1.22479942086701
H         1.09235957768747      -2.75924228264366       1.66030881631896
H         4.48095502721462       1.05117076394140       0.67997472750130
H         3.92774830021365       2.73483846266168       1.05013887550591
H         5.02380022601108       2.42708185436019      -0.35089087005502
H         2.09823679964946      -3.94776080642346      -0.29556095170859
H         0.46450417572711      -4.58725615121043      -0.74838924907365
H         1.23392508887263      -5.08618686934737       0.80415668713907
B         6.95198766128392       4.93993782536380       1.31323086766922
F         7.05650039680551       5.31640343985618       2.67843688392865
F         7.55073692638044       3.66564027766369       1.12599641021457
F         7.61698892052125       5.89931158629380       0.50477455126226
F         5.58291739457999       4.88078111078562       0.94366491818027
