44
C10H20F6N2O4S2 optimized with ADF in AMS.
N         0.14400280324900      -0.04183492658654      -0.92337756869091
C        -1.28643773341408      -0.38263755450018      -0.53436923213347
C         0.19687387212910       0.56874788828982      -2.32272526805395
C         0.96528745428013      -1.33066787588089      -0.93475905687274
C         0.70295698518045       0.96056064114780       0.06574445952435
C        -2.01514404929808      -1.29150958266131      -1.50297366281262
C        -0.72946586912840       1.74192348569792      -2.55924663637973
C         2.46195891855156      -1.14026146621925      -1.05998111711796
C         0.81902552227904       0.47389678433545       1.49816297646390
H        -1.21869676329006      -0.84781482287663       0.45879220622456
H        -1.80675649037213       0.58024369887613      -0.42217845488621
H         1.24392301179553       0.86259509775292      -2.47353128510905
H        -0.02383396899381      -0.25117884621833      -3.01868333460640
H         0.70695470212329      -1.86408424463986      -0.00807457501514
H         0.59735222925261      -1.91393311984281      -1.78864924099050
H         1.68736259080670       1.25086973603738      -0.32741087398650
H         0.04746170944625       1.84052780965748       0.01029908752242
H        -3.02594772264113      -1.45975259874011      -1.10060947854896
H        -2.11762862799057      -0.85712358107783      -2.50593052268355
H        -1.53060842122628      -2.27068954301516      -1.60909644140242
H        -0.59622439671700       2.03715427774960      -3.61099758934701
H        -1.78829148318089       1.47165215222092      -2.45106080366966
H        -0.50388756113876       2.61733168455258      -1.93288185562731
H         2.89624201737614      -2.14502046125967      -1.16687498391831
H         2.73732640897810      -0.59652707651879      -1.97228137355258
H         2.91757129481521      -0.65327554296443      -0.18597202516822
H         1.29737743309726       1.27238291664467       2.08565137885077
H        -0.15751388292678       0.27165799255244       1.95824759593475
H         1.44863378525067      -0.42144937694585       1.58836737322844
N         0.02485491994282      -2.19314507445263      -4.15545672142729
S         1.36355514295582      -3.05778984089626      -4.45066964580785
S        -0.98936770253633      -1.70565407184392      -5.31880590369579
C         2.63904913356903      -1.76729687192186      -5.04261783559294
C        -2.34728568361186      -3.01692108840339      -5.34545411452948
O         1.87962921953180      -3.43487348046765      -3.13476377292043
O         1.30074912463038      -4.02630583200231      -5.53099245744979
O        -0.45914800489715      -1.68548831716294      -6.67283131661831
O        -1.68925233572540      -0.53388579748889      -4.78171975791730
F         3.88495634623076      -2.20237049500702      -4.73133935859889
F         2.45645068702184      -0.56277864378935      -4.41418038432378
F         2.57190771455857      -1.55827096969231      -6.36731113766592
F        -3.28017139462543      -2.64824552359552      -6.25562955739555
F        -2.95243794354746      -3.11085267076131      -4.12963422629861
F        -1.86650921589046      -4.23046383688209      -5.67844068193401
