39
C9H16F6N2O4S2 optimized with ADF in AMS.
N         1.65595030915495       0.43160120204377       0.08973192761382
C         0.42195954881195       1.18550053781918      -0.35630305120332
C         1.62319198404222      -0.97285029699489      -0.49584889922568
C        -0.86905255131655       0.46388173682344       0.00082410287708
C         0.36555636111122      -1.72597024196706      -0.11175236331007
C        -0.88738209337310      -0.96542336947503      -0.54314693139176
C         1.73952619547206       0.38716422705866       1.58816998775711
C         2.88338534864088       1.11910805222963      -0.43086653054266
H         0.51485733113462       1.29305381438118      -1.44908318335282
H         0.47830480240354       2.18532978716725       0.10074384396010
H         2.53946002848485      -1.48587761132609      -0.17183484580386
H         1.67139892546479      -0.83195586901384      -1.58851899317814
H        -1.70032474375653       1.05427036995926      -0.41932368473265
H        -1.01582873387391       0.46222895274013       1.09394677926749
H         0.35782224468834      -1.92917516112593       0.97186119103684
H         0.42089727094005      -2.71162646593659      -0.60168095153379
H        -1.79589101825146      -1.48710216841321      -0.20305918238753
H        -0.92945953445627      -0.93261662744762      -1.64777919266256
H         0.81366902772237      -0.02314690875068       1.99905733187938
H         2.59201496103926      -0.24801260611982       1.84803724583894
H         1.90938921887904       1.40712140918271       1.95380086532291
H         2.81963697084169       1.15299276051083      -1.52623967992968
H         2.92248909811635       2.13261195017520      -0.01239301823989
H         3.75861962463524       0.54370996067565      -0.09950412095772
N         4.58458028129514      -1.14527112892930       1.32873040905041
S         5.27365162165544      -0.25264502126456       2.49798611233264
S         4.65654808908308      -2.75610798200177       1.23565221275400
C         7.16186880292737      -0.36065119975367       2.26804487601424
C         3.48842996309982      -3.43817512902560       2.57057859078598
O         4.95170441962382       1.13064287534175       2.14267859942214
O         5.03354864641801      -0.73117603104763       3.85325049222223
O         5.94718450268397      -3.35060956836723       1.54209021370247
O         3.94472293695844      -3.10096050464562       0.00285961758852
F         7.71219481554760       0.74554794690684       2.82657104214344
F         7.48275135574364      -0.38800076873778       0.95381381327698
F         7.67346680859263      -1.44464871263512       2.87435071881607
F         3.14245619805364      -4.70477421379874       2.23663291287731
F         2.33913780903303      -2.69329506640351       2.62305293742454
F         4.04395428282876      -3.45041454003421       3.79125501908750
