49
C13H28F6NP optimized with ADF in AMS.
N        -0.62045689021925       0.37521773595896      -0.30691546793737
C        -1.58354917480819      -0.00387550978733      -1.42894628717488
C        -1.19003564042023       1.56342372751840       0.44292758632166
C         0.68923330860915       0.77857755161592      -0.97709901786211
C        -0.41007599452161      -0.77839874435049       0.65691943180911
C        -2.99638293557891      -0.25648230026324      -0.93914997433066
C        -2.61000105543232       1.34523590244023       0.94877149823460
C        -3.55268992532614       0.95262900306963      -0.18851063321768
C         1.83191441054583       1.13769898158864      -0.04503715887753
C         0.23310843422692      -2.01429247832751       0.05488405279260
C         3.06737236808648       1.50518481674512      -0.87730076843556
C         0.35779211655341      -3.12278083379030       1.10298222719620
C         4.26564505157224       1.87471258267791      -0.00710346262396
C         0.99587410434172      -4.38030811104072       0.51577165629598
H        -1.15067059676998      -0.85723964260268      -1.96275523925478
H        -1.55417781068252       0.83965948658957      -2.13493679517738
H        -1.16872826844929       2.39805709685662      -0.27634887739224
H        -0.49754902585115       1.79314629341953       1.26424130045456
H         0.43051632987043       1.62714529622946      -1.62783055150796
H         0.95306270796535      -0.04892632957928      -1.64998633152293
H        -1.39685587685644      -1.02717857611680       1.06798154091877
H         0.19761391201897      -0.37828764173440       1.48367775143692
H        -3.04410728399234      -1.15993796891139      -0.30723524805531
H        -3.59945333279022      -0.48098731420595      -1.83472962464780
H        -2.93201729863031       2.28888923330178       1.42108439390189
H        -2.62854838031030       0.58421700798007       1.74799550837713
H        -3.64991637303149       1.80206316182831      -0.88967639268005
H        -4.56083469225961       0.74373217961589       0.20357599035661
H         2.09234904743506       0.28943959610412       0.61115133328308
H         1.57423251276163       1.99135634129623       0.60652704675854
H         1.23164211861480      -1.78219141156807      -0.34705687225301
H        -0.35497772382059      -2.38523380148290      -0.79864977861635
H         2.81805498145874       2.34643712454827      -1.54753989909741
H         3.32273248609139       0.65734348644047      -1.53619153605378
H        -0.64195680526558      -3.36749284501369       1.50639471332976
H         0.96025242590070      -2.76331382807432       1.95759619981839
H         4.55610253427915       1.03821230345927       0.64853423603486
H         4.04426016537535       2.74388140393751       0.63322841938196
H         5.13649892154247       2.12964555076164      -0.62939556634933
H         2.00376581025108      -4.16585523137358       0.12809539365424
H         0.39779371864736      -4.76956072285811      -0.32252119972433
H         1.08230267168926      -5.17285541545373       1.27370081005792
P         0.34985927729868      -1.12570392701699      -4.56999370051515
F        -1.25983058693469      -1.40886035314144      -4.23309887221849
F         0.70951791468753      -1.63907929267858      -2.98816378256219
F         0.52740531957544      -2.66743618357865      -5.09081529927941
F         1.94915275629476      -0.82046287256021      -4.80061331673247
F        -0.02480870554876      -0.60298303468882      -6.07212343168565
F         0.15758418190604       0.43105377741562      -3.96984737362899
