51
C13H24F6N2O4S2 optimized with ForceField in AMS.
N        -0.22147889914857       0.31230990315383      -0.16536115782688
C        -0.91907791106373       1.28527617307842       0.73769921132989
C        -1.11779396741809       0.01575440005246      -1.32958347341982
C         0.12415788422725      -0.92847479293294       0.61148272050681
C         1.00562417793170       0.97167817240948      -0.73146891873464
C        -2.32237597117549       0.82607087492355       1.18891994732756
C        -2.50765204242255      -0.50826879531671      -0.93368264303181
C        -3.20707232317171       0.48207587125991      -0.00697770954921
C         0.90630841939091      -2.01314088311588      -0.16506779154712
C         2.13804097017995       1.28027874290254       0.27850179715348
C         1.20049897110277      -3.20710877036033       0.74014722724944
C         3.28858262554550       2.01153876772010      -0.41128979926379
H        -0.32585291080724       1.46950420284047       1.65884736470401
H        -1.03867807271450       2.27037398773736       0.23057167997591
H        -1.28106485433762       0.94227586907752      -1.92913464944330
H        -0.64918207757932      -0.70336023193365      -2.03282889132716
H         0.70433869079518      -0.65878978151245       1.52126077950810
H        -0.78829828149457      -1.41673661167877       1.00362286321665
H         1.43585960674601       0.34998406776916      -1.54826207118718
H         0.72384129160088       1.93311985756938      -1.22101378665261
H        -2.25762853300602      -0.04151315972635       1.87804004091128
H        -2.80197412712537       1.64710197591257       1.76397188960728
H        -3.11956001157336      -0.63083698820815      -1.85345123332615
H        -2.44061121446851      -1.50906689363444      -0.45953224986544
H        -4.16395197156832       0.04375528706921       0.35054492530553
H        -3.44465396362995       1.41166278622204      -0.56960997354585
H         0.31596067353485      -2.38648981741651      -1.02548361574726
H         1.87410409624608      -1.62129110376799      -0.53753197586590
H         1.77278350008978       1.92342529927156       1.10388447949401
H         2.54911083082991       0.34514394695455       0.71047653127642
H         1.76750258377746      -3.97713231005868       0.17603034517670
H         0.25320322108539      -3.65988499280337       1.10401924811544
H         1.80543696296553      -2.88571438655387       1.61286796586821
H         4.10064664354643       2.20833361329382       0.32030751928005
H         2.93886629472451       2.98300025142139      -0.82198987167913
H         3.69981789174333       1.39353701222763      -1.23812791286082
N         6.59911923513131      -1.85312441909234       3.58226515942495
S         5.75103980720751      -2.75029120103230       4.65973247266171
S         6.01942253385979      -0.46784801735670       2.92547907515164
C         4.83489207189221      -4.00118294464700       3.78536255038555
C         6.70085425970205       0.92167736757587       3.80528246784968
O         6.70836283128976      -3.42040908787521       5.60392803559128
O         4.79891882783364      -1.88554298370769       5.43864034763517
O         4.51836979669360      -0.42362413326228       3.00376974999056
O         6.44929526019257      -0.38838362512677       1.48813963087196
F         4.13094284915821      -4.77493098290038       4.68794316710434
F         5.70790198696175      -4.80342180152182       3.07563431076811
F         3.95203608615790      -3.40219898883966       2.90956271125037
F         6.20667491155694       2.09447039777360       3.26765462497274
F         8.07827638393928       0.91014140368808       3.69265632911533
F         6.35063400426499       0.84563885987774       5.13995787739388
