43
C13H27NO2 optimized with DFTB in AMS.
N        -0.74814944641994      -0.00449416212809      -0.02360753804960
C        -1.65245828072511       0.63377269584147      -1.03603742534020
C        -1.22263124797962      -1.40730044359542       0.23093295474421
C         0.62314064803034      -0.06667717797982      -0.65010761209678
C        -0.72273531420102       0.76025750182035       1.27098537653108
C        -3.11967108884770       0.62519655186786      -0.62036765397578
C        -2.67715364779365      -1.46900653898027       0.67096636051072
C        -3.59680300974356      -0.80180339156110      -0.35044416771636
C         1.71045029593944      -0.67938352465659       0.22677109464154
C        -0.12207776192346       2.15331392865492       1.17826797406739
C         3.04918840466831      -0.63725258216736      -0.51680073516418
C         4.15218919984647      -1.26047984486667       0.33657626816239
H        -1.53357320842686       0.06989647196286      -1.96596929154718
H        -1.30560828464606       1.65527484104998      -1.20436474584204
H        -0.57136560339876      -1.85538453227054       1.00571381867522
H        -1.09275522101669      -1.95996607297919      -0.70409075919724
H         0.88960093598029       0.95590460066638      -0.93208246779859
H         0.51492835791021      -0.65128331507592      -1.56894796934017
H        -1.75090529097643       0.83211614496773       1.62650501800095
H        -0.14808039271209       0.15130399351892       1.99354115581791
H        -3.69515958079195       1.06434541947226      -1.44008815448955
H        -3.27421878721791       1.24932060877518       0.26347003233224
H        -2.80413151058679      -1.00502348565208       1.65215382841474
H        -2.93870150799192      -2.52547366434738       0.77098917811480
H        -4.62306806118863      -0.78158289824790       0.02410247220961
H        -3.58574964099279      -1.37211538253353      -1.28525914430706
H         1.46434182029714      -1.71523369803896       0.47063160732348
H         1.80161070956681      -0.13647613686479       1.16932878649833
H        -0.23490229168109       2.61608129913292       2.15878343091444
H         0.94075247026190       2.12176140773007       0.94480150978342
H        -0.62870011492963       2.78209562617978       0.44560757880107
H         3.30957030373636       0.40109706394058      -0.75336496084042
H         2.96370427043278      -1.18432026235287      -1.46273112971401
H         3.91117432114777      -2.29813646818829       0.56832589427948
H         4.26198550193526      -0.71338235071449       1.27327746899253
H         5.10141583422373      -1.23218153473369      -0.19907420188690
C         1.26418620462113      -2.86478671001128       4.40294328655352
C         0.81844167549794      -2.11777846197369       3.12527213474543
O         0.83302029147468      -0.86880152070797       3.17604098790721
O         0.48721496634709      -2.82063013632645       2.14603171506121
H         2.34504509011479      -2.76621632027782       4.50038765638491
H         0.79379365085083      -2.41199924405462       5.27426364847866
H         1.00083781600840      -3.91860465539454       4.33735352495956
