43
C11H24F6NP optimized with ADF in AMS.
N         0.29845082920612       0.37844105052546      -0.13778911437814
C        -0.62492678594844       1.13783664379984       0.79438920246546
C        -0.48829438264241      -0.03708507052284      -1.36293353665956
C         0.87703236121383      -0.83112594617993       0.59896163828465
C         1.41597728668803       1.31039921719106      -0.62473928872687
C        -1.91483952154696       0.39746517188812       1.12918049167298
C        -1.71853210530171      -0.86145566738941      -1.02494149008991
C        -2.66038522155251      -0.06479783984846      -0.12177255108915
C         1.50738450949948      -1.90794372157029      -0.26676561681867
C         2.15796288110836       2.10707685626205       0.43548921171466
C         2.00068725867874      -3.03863676225299       0.63909344941537
C         3.16824239618871       3.02583249634017      -0.26128722703420
H        -0.04605127604881       1.35951621105711       1.70079072189533
H        -0.84778537372647       2.08920333712911       0.28325434390990
H        -0.79008045522092       0.90236214471869      -1.85374418587327
H         0.21246839161758      -0.55855446623772      -2.02775375425489
H         1.62958184482355      -0.42587404915574       1.28898181454231
H         0.05175436926779      -1.25632294051346       1.18472597171647
H         2.12933853477947       0.67588960212174      -1.17021366273610
H         0.92241578241037       1.99508582331654      -1.33373782487896
H        -1.70821770897982      -0.46265172218558       1.78739924149676
H        -2.53370716495199       1.08968629898747       1.72466406301718
H        -2.21148745041400      -1.12907818887029      -1.97385212872649
H        -1.43079967746143      -1.81173015668849      -0.54474688097009
H        -3.53857789985756      -0.66787518614880       0.15694581751133
H        -3.03780904767720       0.81494459894547      -0.67483312536730
H         0.77353400975674      -2.31805300709283      -0.98056035978599
H         2.36474075647048      -1.50573318196927      -0.82747609453989
H         1.46232027742292       2.72442349440512       1.02715774142543
H         2.70903520692297       1.43194480174628       1.10744522088462
H         2.50110258015745      -3.80790990215038       0.03557556338541
H         1.16553980192329      -3.50835190275327       1.18483799421783
H         2.74057357620454      -2.65806719375329       1.35649687008770
H         3.74450784672452       3.58284769599525       0.49066192936916
H         2.66328827687139       3.75202477468569      -0.91886789624406
H         3.88492820320161       2.43498505811738      -0.84768978963417
P         5.22970499093393      -0.55293486200822       0.09018036784070
F         3.91773600831801      -0.50336604753396       1.15674423063237
F         4.82903329597511      -2.11385353262158      -0.28257041920779
F         4.18745194794904      -0.03630684854375      -1.13761384853685
F         6.46889245069192      -0.58135321165156      -0.97679482461156
F         5.53972739743484       1.02658624356573       0.45756733483943
F         6.19211073888945      -1.06362271185615       1.31190518093887
