46
C12H23F2N3O4S2 optimized with ADF in AMS.
N         0.85593450100772       2.32794637329818      -0.25566913766931
N        -0.72013364470019       1.48980592378985       0.98487956436679
C         1.79745655961117       2.52776595101410      -1.36870973603237
C         2.99736898264057       1.59105155830887      -1.26026086825589
C        -1.81540953636714       0.62344784970726       1.45534225076211
C         2.65410186693846       0.13561627141933      -1.56222220522868
C        -1.36605555985967      -0.80065994651641       1.76404619126275
C        -0.17048002254096       1.46522895473416      -0.23750513733886
C         0.97899040745894       2.89676294034160       0.99248763335495
C        -0.01241204071162       2.37281174147142       1.76871693982964
C         3.81061944738304      -0.81642624196003      -1.26680052949020
C        -0.98365865940922      -1.61946293095541       0.53315144398754
C         3.42385006473024      -2.27474353941421      -1.49202614482730
C        -0.70428309590374      -3.07706054219649       0.89056853009575
H         2.09737949511733       3.58553568996896      -1.33430555719260
H         1.23661555015634       2.36563724064999      -2.30291412479215
H         3.76724290710417       1.95783787644203      -1.96250938803747
H         3.41958765057277       1.67413706738775      -0.24339596714855
H        -2.22095022771456       1.11581769012073       2.35049610978203
H        -2.59585757148743       0.63898561903524       0.67768067501011
H         2.34179110881354       0.03617120913277      -2.62045136596459
H         1.80731288050728      -0.17830099148312      -0.93119952853922
H        -2.21611837743371      -1.28591311020055       2.27803108313692
H        -0.52426858947102      -0.78427320966384       2.47562364883554
H        -0.49495334762192       0.85084293397019      -1.06609215063202
H         1.78537267260802       3.57712412105140       1.23541745195450
H        -0.23466090944511       2.51094622417219       2.81862612567999
H         4.11592516841067      -0.67956189132515      -0.21515404369333
H         4.68245343294691      -0.54765048699211      -1.89150048322859
H        -1.79445480034031      -1.55985444660824      -0.22049683960103
H        -0.07096035245769      -1.19623239293525       0.08275502874573
H         3.11707705133118      -2.45166883867466      -2.53626304153072
H         2.58868726217859      -2.55368333871313      -0.83069611583569
H         4.26294176048011      -2.94854471283409      -1.26331921203198
H         0.11318298798740      -3.13676022045156       1.62284968067780
H        -0.41553275694659      -3.65513259116477      -0.00040579473101
H        -1.59614464221732      -3.55073819494296       1.33179520355061
N         3.43587041043395      -0.90836804093626       3.23112233422480
S         2.73391258645919      -2.35770742061614       3.41738589832617
S         2.61137838366369       0.25851057156463       2.55414940095957
F         2.79423792579104      -2.95865540752432       1.86737254777843
F         1.57868345188336       0.78282658777003       3.76602882097878
O         3.63951042125164      -3.19901328615219       4.16322742794681
O         1.31171375499237      -2.32710313223074       3.71418516570522
O         1.68667461043018      -0.12733946808947       1.49106514722681
O         3.47170787803832       1.40995941353040       2.33208412202223
