32
C10H14F3NO3S optimized with ADF in AMS.
N         1.94826813248704       0.22835592727178      -0.25544541052915
C        -0.52855881383044       0.27999633220863      -0.01750183298322
C         0.81448128678143       0.61429112336021       0.61602614584923
C        -1.68928432277994       0.69347042946507       0.88818980938869
C        -3.04275381227162       0.35677577453057       0.26900657788406
C         2.45207116075197       1.13132205741055      -1.12043350883804
C         2.53837580253204      -0.97106810728568      -0.08191030708966
C         3.54078575087766       0.81546701079559      -1.91245095642708
C         3.63002020512838      -1.33537669531675      -0.84855544566213
C         4.14231327271985      -0.43030136700276      -1.77161455744811
H        -0.58500285119667      -0.80535112975033      -0.22055705206994
H        -0.61896368979697       0.79347660734970      -0.99239805708572
H         0.97711392122536       0.09750951586016       1.57226951039827
H         0.93946559189679       1.68808437448392       0.81474001900846
H        -1.58947657780137       0.18978448708226       1.86639667291266
H        -1.62878260533326       1.77816192264859       1.08900637938768
H        -3.86851608310184       0.66432798225834       0.92706452989738
H        -3.17176913867449       0.86889512527271      -0.69792225683451
H        -3.13631031639130      -0.72652725848052       0.09183006357103
H         1.95948008490031       2.09913266745521      -1.14473287152043
H         2.11324968954853      -1.60859220154463       0.68785816720375
H         3.93697227997253       1.56718697390799      -2.59351095859007
H         4.09828398470436      -2.30355583325576      -0.67751532029820
H         5.02913799727454      -0.68232442327308      -2.35509080858937
S         3.87236831369497       1.53188226481951       2.22690369986825
O         3.95537921816681       2.18155699098972       3.53280482166541
O         3.30306375130721       2.35432356875780       1.12990012093077
O         3.39524834931276       0.12649341917786       2.23152581675329
C         5.66863314185349       1.35773581425464       1.71328896661081
F         6.36489230092248       0.59027874164346       2.59027510729397
F         6.27786269885392       2.56802931812012       1.63623011181646
F         5.77785150186547       0.76625299718509       0.47853279302547
