45
C11H20F6N2O4S2 optimized with DFTB in AMS.
C         3.29537236035477       0.29511958298574       1.20798064644311
C         2.37502106655913       1.50685604275101       1.13493916525417
H         1.28439292249293       0.16125473840255      -0.99603469384797
H         0.38764945132680      -0.91538061853855       0.10494910179300
H         3.11019558150415      -1.17861883342217      -0.39982834791170
H         2.38298392544180      -1.68232037554869       1.12973551820984
H         3.49153879955348       0.01388797123211       2.24433710392112
H         4.25109205454007       0.52150516359525       0.73299719716673
H         2.38874750871885       2.12046036808583       2.03326622774656
H         2.61025217615604       2.12851625399027       0.27023622888648
H        -0.48031795925664      -0.05024618856739       2.07271036536783
C         0.44534854624504       0.49592011443565       2.23750304544935
H         1.17004191198022      -0.15415070162953       2.72135605133838
H         0.26535891198687       1.37099107569902       2.85966352133998
C         0.12697989842969       2.01896295518267       0.32749343589177
H         0.20784188378307       2.87500691587473       1.00973720402458
H         0.58102220706896       2.29272985847185      -0.62769253366349
H        -1.78335094346376       1.27182465359728       1.04429328809456
H        -3.39697405692181       0.18083245871201      -2.21383628736337
C        -1.67804512598185       0.80922603779598      -1.06965169707194
H        -1.13263910219087       1.17068440122734      -1.94776693112049
H        -1.36435001104658      -0.22179004153659      -0.87827425175673
C        -3.17804375409235       0.82399179381933      -1.36173874044048
H        -3.51087071613096       1.83580789439387      -1.59380523222928
N         0.99466017371438       0.94772225115452       0.93081641902065
C         1.22181812270814      -0.21916291418821       0.02550937053147
C         2.55109652086224      -0.82902925455951       0.46956899457791
H        -3.73793000709527       0.46251705477646      -0.49853085413666
C        -1.35261458414972       1.69843501894047       0.13560615004480
H        -1.83195706719473       2.67159881777354      -0.01625397031586
N         0.22001680702443       4.52513761402789       2.17277177789675
S         1.46726347227830       4.29951654564670       3.15911611694096
S         0.24076508700919       5.84968269840021       1.25308328500565
C         1.39572192248787       5.56058167874595       4.55205012984629
C         1.26915215393248       5.40867081506719      -0.27036921103306
O         1.20281406569437       3.02700784157263       3.81254325958739
O         2.77436822020921       4.44919817216025       2.55450931688950
O         0.89646352284760       6.98593947454763       1.83888694997372
O        -1.08384925247141       5.99357191142310       0.71477006884447
F         1.71685059903344       4.94608947465307       5.68004212154976
F         0.17264951353745       6.04379751045558       4.66192767325180
F         2.24666230397450       6.53959628117433       4.33975026070185
F         2.08734683047843       6.38190969730152      -0.60841430281127
F         0.45602537213248       5.14972126205577      -1.28898367878364
F         1.98986873282956       4.29786872796135      -0.06280783330451
