35
C9H20BF4N optimized with ADF in AMS.
C         2.72971405881787       0.44313530834262       2.24011261344217
C         1.99744361238872       1.33031953275382       1.24138577174461
H         1.75072564526647      -0.93148733305898      -0.21955038234694
H         0.41476243439840      -1.55805086829744       0.82243266753679
H         3.15063442419500      -1.57347062622684       1.46713099850392
H         1.90695200230229      -1.53796004907929       2.75010960258079
H         2.47067086493268       0.69047876354623       3.28127616719255
H         3.81049376602090       0.58387881170876       2.10436165021906
H         1.71111869276742       2.32716345179127       1.60498273358138
H         2.58338455625971       1.40271869106223       0.31352107958804
H        -1.14438768716250       0.06599932428353       1.73112317532380
C        -0.25508285417810       0.65163260208117       1.99055292796902
H         0.19655554019854       0.25188660878222       2.90573011576175
H        -0.52740731024105       1.70485387074251       2.13569588300044
C         0.15596600030953       1.10340568565970      -0.41085926704366
H        -0.22617450183790       2.10240900451769      -0.14787595074183
H         1.01606064077946       1.20838631314249      -1.08890069423387
H        -1.59553210884159      -0.21555758753038      -0.32503317394453
H        -1.14899285795360      -2.06691026226930      -3.67135757560333
C        -0.41710395693780      -0.78787784252518      -2.07358776236470
H         0.36441236899342      -0.32433933907036      -2.69848016380412
H         0.07848810883403      -1.62240898572422      -1.55411524327470
C        -1.53926022216157      -1.32960233764984      -2.95383956752914
H        -2.01486118272014      -0.51920255713457      -3.52998531304616
N         0.73618091469757       0.55903179227681       0.87956707209421
C         1.26177847624947      -0.86225970354811       0.76014678308108
C         2.30352602574444      -1.00360429484769       1.87385327360067
H        -2.32299153490843      -1.82264268082200      -2.35587079813299
C        -0.92948136054156       0.25398680723852      -1.07165814672435
H        -1.57379513151796       0.96542693140389      -1.61981578501478
B         4.01426911808861      -0.31173510872730      -1.39121690113002
F         2.78363201992538       0.34251743387801      -1.81745498586015
F         4.92845750810103      -0.34321199624564      -2.43927427374174
F         3.66487786746331      -1.62757843261074      -0.95597583720981
F         4.51705223936793       0.42553326185643      -0.27331057877349
