49
C15H31NO2 optimized with ADF in AMS.
N        -0.20344135323608       0.90083890536010      -0.56691313780943
C        -1.45796689158197       0.50340260284691      -1.31476284554740
C        -0.28638890435568       2.36503053462499      -0.15531423050433
C         0.95220980112201       0.70864041650079      -1.54479895701406
C        -0.00099189822387       0.06877225893518       0.68894879096320
C        -2.73587121770630       0.79380361819124      -0.54855252240205
C        -1.57368733526245       2.69841797463262       0.58072776441776
C        -2.82470629498870       2.27412301594134      -0.18309229908861
C         2.36427859678949       0.88752501637703      -1.00864733289843
C         0.24530524300745      -1.41194929998863       0.47300311372362
C         2.92871434749817       2.30980144884701      -1.00968103784082
C         0.57968632624051      -2.04716633362152       1.82842000446431
C         4.40882257519300       2.28549524662447      -0.63245939008026
C         0.91414682966038      -3.52969154813326       1.70703402561906
H        -1.36048230551705      -0.56355870404884      -1.56093807029800
H        -1.44361873584256       1.08109073961302      -2.25355052537320
H        -0.20427528399115       2.94351329162119      -1.08991719243252
H         0.57797024362596       2.54199697771425       0.52012244143840
H         0.74538348269766       1.40986222314503      -2.37050553100259
H         0.81867520765404      -0.31133303446472      -1.93378925264659
H        -0.89065225255561       0.22440235212618       1.31152733654765
H         0.87059337326430       0.50605456554591       1.21712551935896
H        -2.79077495666277       0.16695477357403       0.35668393325903
H        -3.58028981353802       0.49125096438570      -1.18970709214873
H        -1.56457695749925       3.78809469484665       0.74739635572128
H        -1.55153502581976       2.24350923849544       1.58483824621192
H        -2.91426609985100       2.86972949153000      -1.11074322237853
H        -3.73012529320887       2.46643346933628       0.41450887048288
H         3.00203765106633       0.26079442558949      -1.66093780563285
H         2.46660759768180       0.48569031174509       0.01792037799503
H         1.11122133673422      -1.56529185359014      -0.19243919147153
H        -0.62066985195286      -1.92845112186081       0.01873504721281
H         2.39898741443465       2.92254212653984      -0.26575386851805
H         2.79136327901384       2.77566459562021      -2.00421648022829
H        -0.27317952654362      -1.91152955362696       2.51803134853714
H         1.43007011564769      -1.49021379075248       2.25822902387588
H         4.99738738175076       1.70652853949527      -1.36392533094721
H         4.52865663883261       1.81251884163145       0.35466781865870
H         4.82813046305833       3.30143178100014      -0.58178493911512
H         1.77312974476684      -3.68034651273563       1.03333473517466
H         0.06336250658167      -4.10534788675165       1.30649215648967
H         1.17981048918473      -3.95509306169767       2.68657275084448
C         3.39625638535450       2.17042763621998       3.70169914599119
C         2.50538874828932       1.75514540163554       2.52487021967578
O         2.67030093205445       0.57148278305023       2.08879730267507
O         1.68227753760958       2.61534023971347       2.08188101137230
H         3.18934021951057       1.51898250039420       4.56502930935666
H         4.45396285056988       2.01658938618201       3.43835309999958
H         3.23024645294286       3.21866721894002       3.98327588591157
