38
C10H22BF4N optimized with ForceField in AMS.
N        -0.88392478132403      -0.16234112996725       0.05473096517592
C        -2.01129916252499      -0.27588156102112      -0.92029859344260
C        -1.22498882239175       1.01896447948797       0.90598790642416
C         0.39264520370472       0.08758797027419      -0.69026642647395
C        -2.83812115807198       0.99223505831755      -0.84153408182854
C        -2.63941080598411       1.45751346481505       0.57355237370581
C        -0.81455749547314      -1.39212011361231       0.90834792362180
C         1.65363145704144       0.18634849923626       0.20212364849731
C        -0.45509895070749      -2.68022944575589       0.14508284928784
C         2.86728344210005       0.63052577612309      -0.62465878893265
C         4.12370678499932       0.72295435242420       0.23604432845895
H        -2.69550120866464      -1.12089785255124      -0.67407776987433
H        -1.67160887258349      -0.43974633506661      -1.96877085622315
H        -1.14415028044522       0.81132000832468       1.99782460936659
H        -0.56182395906026       1.89096454278249       0.70174418191319
H         0.56568941489735      -0.71177683711582      -1.44495401516965
H         0.29864612091318       1.03359396482839      -1.27193212977176
H        -2.43818083564480       1.75034665638776      -1.55074326423338
H        -3.91126514231154       0.80260612014146      -1.06199325227796
H        -3.36275301120067       0.94456017731320       1.24560278423248
H        -2.76566883212142       2.55883647695492       0.66125176656158
H        -0.07819837038303      -1.26071699015956       1.73146194596286
H        -1.79463214093397      -1.55751101306151       1.41228685720220
H         1.49562109632579       0.91041985873145       1.02862485212118
H         1.88207974715583      -0.80432032166078       0.64721417457518
H        -0.56470196487741      -3.54962384583505       0.82670975534282
H         0.59790270375335      -2.66078068241958      -0.20117294818292
H        -1.12279112778617      -2.84141040252026      -0.72574537609886
H         3.04667677587165      -0.09861438306804      -1.44483797085369
H         2.66900474612532       1.62705222230645      -1.07615662239110
H         4.35873913168097      -0.26509154409580       0.68638760451493
H         3.98408304445182       1.47186819484439       1.04446723394268
H         4.98244990414201       1.03777999171589      -0.39430988014162
B        -0.44755882088102       1.69087234091978      -4.48326554377485
F         0.37853066394515       0.66012896939015      -3.96268666226774
F         0.01796717724050       2.06154694703932      -5.77299832611572
F        -0.40088681357437       2.81833830964773      -3.62064352092020
F        -1.78515346700295       1.22305131590447      -4.57871971753280
