27
C7H11F3N2O3S optimized with ADF in AMS.
N         0.93611024996299       0.08862552187815       0.10721409928145
N         2.35296053842912      -1.20832697579140       1.11635958927707
C         0.17714563869316       0.71949834680947      -0.97912887076137
C         1.66683205596904      -1.02185147294309      -0.01975264836305
C         1.18964341381499       0.65177200318610       1.34122425575540
C         2.07658747782026      -0.16446614293258       1.97529998924556
C        -1.26314002712430       0.98577405193368      -0.57997563643916
C         3.35503992739864      -2.25324616173491       1.29817318664884
H         0.73496438211760       1.63048045725155      -1.24868216715026
H         0.23818359517932       0.03601765136983      -1.83805321155257
H         1.73820053927945      -1.63346575367389      -0.90753347517954
H         0.76133685489948       1.59817367247771       1.64136795808511
H         2.55636234501988      -0.07647403609998       2.94152968562877
H        -1.77007944003750       0.05388954514977      -0.28925207214318
H        -1.80345436392374       1.42855382233340      -1.42926474545970
H        -1.32600531558742       1.69378757495947       0.25936505822027
H         2.86504382285841      -3.23377649954014       1.36315941956356
H         4.04260523110198      -2.20635308794892       0.44232543039311
H         3.90556236650766      -2.05046673194832       2.22261560416176
S         4.17689104506787       0.79021592044916      -1.43360837839142
O         3.84165289294787      -0.66097158241119      -1.44889129065887
O         3.11827534667511       1.64152410463890      -0.85480389664549
O         4.84341564181051       1.29000149683760      -2.63325865400728
C         5.52381335338775       0.85421182338446      -0.12211261881659
F         6.56394384195950       0.03512799905181      -0.43064385939886
F         5.04709320626980       0.44538844470286       1.10671069143494
F         6.00995094920259       2.10924936541048       0.03574967907150
