31
C9H16F3NO2 optimized with ForceField in AMS.
N         0.83212629699559      -0.00582985057187      -0.04763286731419
C         0.07209417906776       1.22255975495905      -0.42203706939830
C         0.07258808553506      -1.23656718346004      -0.41493097939727
C        -1.35883687131372       1.25046872530447       0.14383437780984
C        -1.35990316006976      -1.26095000783276       0.14814665046818
C        -2.12575647687393      -0.00551590145371      -0.26310666436434
C         1.16882165587656      -0.00089024525891       1.39897310133792
C         2.11047294201686      -0.00705933344719      -0.80137231414252
H        -0.00692157005251       1.30253884682513      -1.53123629720728
H         0.60717246122132       2.13559430145721      -0.07488140102263
H         0.60713251212605      -2.14702580851436      -0.06041744054265
H        -0.00432216308458      -1.32389726260197      -1.52372879272387
H        -1.88897781468054       2.14210695850336      -0.25501899563394
H        -1.34492636613390       1.34950990467725       1.24940077364557
H        -1.34844199354978      -1.35729271887852       1.25393173627606
H        -1.89023623745367      -2.15307954249451      -0.24935752765783
H        -3.12546942514488      -0.00413439015818       0.22179027459113
H        -2.27825758135160      -0.00723284921707      -1.36493240464654
H         0.26772936126234      -0.00677643935634       2.04274937902353
H         1.77522946686554      -0.89367749706642       1.67142723009336
H         1.75711009613525       0.90466963508056       1.66377114420292
H         1.93276415489317      -0.00803953367350      -1.90033072915349
H         2.72021593034155       0.89305035998151      -0.55971658628029
H         2.71941432130609      -0.90715313301302      -0.55821286702703
C         4.30049084567246       1.70844397971555       4.08283035240374
O         3.13279289664820       1.81157782404557       3.74269087661109
O         4.57392257663523       1.16130390015701       5.13914529625800
C         5.39773240526566       2.25455394827481       3.21696186273482
F         6.08427180424134       3.23603049472178       3.90724755267262
F         4.87867867511861       2.80033641895201       2.05553861349130
F         6.27359054678423       1.23845966194310       2.88284248069210
