49
C13H16F18NP optimized with ADF in AMS.
N         2.07134391513305      -0.32284434725983       0.92035451797255
C         0.69771497390980      -0.88528973499111       0.63219330885373
C         1.76882723831425       0.79266420799922       1.90489187386631
C        -0.21208171267618       0.33917872262356       0.52706352391178
C         0.47228254434458       1.42819932490231       1.39829283592419
C         3.00577314763692      -1.33870451486626       1.55365490948385
C         2.67757133157580       0.25322721050957      -0.32476895072554
C         3.43961478899039      -2.44981860992218       0.62400166802159
H         0.43441393351756      -1.51296403531728       1.49677085563411
H         0.73714396763159      -1.50866036803335      -0.26939117607116
H         2.63604961150147       1.46080558182830       1.95950208154073
H         1.63398177708230       0.30517958118686       2.88182346281686
H        -1.22433440833481       0.09298811317536       0.87789834591764
H        -0.30634708779737       0.67015291560604      -0.51747532394208
H         0.67828461844891       2.33457142072771       0.81070017364229
H        -0.15304064715518       1.73428638985788       2.24863897964729
H         3.87805422125008      -0.77217367218971       1.90124332446296
H         2.45983856274801      -1.72748900873507       2.42732437276319
H         2.71211674686231      -0.52564872421833      -1.09454662376685
H         2.05772848984122       1.08944956873932      -0.66670524286692
H         3.69015752435722       0.59675155255634      -0.08960976696214
H         4.04514038831659      -3.15226513254005       1.21652130170709
H         2.59426709966479      -3.00987785135796       0.19678608996297
H         4.09265989694535      -2.07745975884952      -0.17661583917200
P         7.01589049904878       0.69809204974357       1.35421180690638
F         8.06033967052557      -0.35337843955254       0.61190167969591
F         5.70153056673897      -0.10886402447308       0.62344894750333
F         8.22354247159139       1.53937774847587       2.11233855927248
C         6.98257260996656      -0.56599909226962       2.88868306950428
C         7.28388611974831       1.83832472753017      -0.25022860067263
C         5.59802698124563       1.88047882318483       2.18030679199341
C         8.15496856985048      -1.59391513123428       3.01997681928657
C         6.64260891107870       1.39901049195770      -1.59747028265040
C         5.94110360823383       3.13000233976370       3.04467142927627
F         5.84229458130645      -1.36753051736165       2.90409028134498
F         6.99089885763326       0.12787187032442       4.07512994884218
F         8.63493285322135       1.89034007951204      -0.49976881624547
F         6.87829921843638       3.14476121781676      -0.07693161560185
F         4.77479164585044       1.11176989599095       3.00252950112458
F         4.74543031927377       2.35158497683168       1.18597096359914
F         8.04168863863153      -2.22563124910304       4.22764237712303
F         9.36320641375525      -0.99923913886825       2.97937692102784
F         8.09621858056478      -2.55378908495764       2.06525696493978
F         6.92012601270114       0.11598746058995      -1.91101319777273
F         5.28283551359428       1.54857246429611      -1.57575573816871
F         7.10589590581257       2.18660722899772      -2.60560182224896
F         6.59286547956130       2.79093441330224       4.17413342220232
F         4.76502800796063       3.73889407660537       3.41257397044940
F         6.67379529956003       4.03482191576523       2.37186677374641
