59
C17H34F3NO3S optimized with DFTB in AMS.
N         0.54887147997306       1.94053318867677       0.14080730364822
C         0.12279366917098       3.00424218138917      -0.83168606378837
C         1.23928345558565       2.71772964957095       1.22422471832280
C        -0.64088641419364       1.24360805799338       0.72933134839302
C         1.49697648684826       0.99556020839750      -0.53483644492104
C        -0.23678290388432       4.22534570517156       0.00850910210588
C         0.45511119482972       4.01803395643482       1.36273514722849
C        -1.39265837168624       0.32807901095551      -0.23549926490871
C         2.07115628218685      -0.07357522578353       0.38842652887560
C        -2.67681997598819      -0.17452680943810       0.43526320304515
C         3.16328680913085      -0.84550622312792      -0.36148401166596
C        -3.44557778074622      -1.12047901328501      -0.49218822326438
C         3.77943718643597      -1.93049023699073       0.52607508255159
C        -4.72867765026216      -1.62749506497065       0.17384768673000
C         4.87749903844194      -2.69439306359362      -0.22030931407170
C        -5.49853365743773      -2.56990090406044      -0.74949797015702
C         5.50257032453416      -3.77384655833443       0.66159407459873
H         0.97920873241390       3.21783497202326      -1.47397345499447
H        -0.70189281958318       2.63690637316724      -1.44112512166633
H         1.26803259191458       2.12963659477149       2.14158396178578
H         2.25501709816213       2.92086570817838       0.88374209445838
H        -0.28871598890116       0.66268664053199       1.58540647298142
H        -1.31122788541140       2.02383892007897       1.09826611182187
H         0.96683781136440       0.54329540567502      -1.37549622237639
H         2.30782355262538       1.60847865093979      -0.93597584569594
H         0.14066371630593       5.12270077000432      -0.48404753394238
H        -1.31815176618311       4.32117030900499       0.13069666792570
H        -0.27568750071302       3.95402005909916       2.17240571218979
H         1.14561780050089       4.83447854045738       1.57706250552503
H        -1.65140944391812       0.86128706292313      -1.15378452214924
H        -0.77230425433195      -0.53010756678307      -0.50572193161798
H         2.50963181777703       0.39264793672009       1.27466286292702
H         1.29095075227774      -0.76662024250317       0.71832488118608
H        -2.42135861668358      -0.69709165148643       1.36331511913119
H        -3.31044468231912       0.68005069410957       0.69551721601049
H         3.94244029607717      -0.14502941031451      -0.67719850581788
H         2.73578188113148      -1.30226839606061      -1.26024073631586
H        -3.69699224582069      -0.59474129787076      -1.41953249764475
H        -2.80722674118824      -1.97140985561004      -0.75310844316665
H         4.20201934052375      -1.46748720704691       1.42428008452961
H         2.99806836749636      -2.62908984643694       0.84625304985921
H        -5.36351076560297      -0.77439340592204       0.43604673374804
H        -4.47392007105084      -2.15234382602398       1.10079041591916
H         4.45303046041961      -3.15739223416811      -1.11760300119370
H         5.65350334062908      -1.99198147854613      -0.54137262985806
H        -5.77893327982989      -2.05778153820279      -1.67085895885980
H        -6.40568662734456      -2.91737038889418      -0.25504725578341
H        -4.88827516118669      -3.43688121085731      -1.00595161854789
H         4.74789597002654      -4.49662189321176       0.97556676411936
H         6.28088788170219      -4.30168339937946       0.11024381836319
H         5.94858161813947      -3.32891195793350       1.55216845481910
S         3.55058283014704       4.20813216676783      -1.48564189600990
O         4.21872967029576       5.21324994413357      -2.26188937856969
O         2.92272788788762       3.13150225134059      -2.24720838555793
O         2.70935901662146       4.69739230769669      -0.39879241347208
C         4.89014033296079       3.30213508787799      -0.57177722503283
F         5.53381682722256       4.07739962081995       0.28861527506476
F         5.77415531575296       2.74551441008035      -1.38628141684011
F         4.31699424435381       2.30406871414470       0.14011332632578
