56
C16H32F3NO3S optimized with DFTB in AMS.
N        -0.24183716214202       0.88792924383159      -0.37770716917659
C        -0.85233939084101       1.48698350306781       0.85589146115446
C        -1.24920740974113       0.94307715007636      -1.48678247256101
C         0.91979339858949       1.75542298967890      -0.82410534012286
C         0.22580121504235      -0.51931800655304      -0.08079682575619
C        -2.19568739932791       0.87516379944950       1.24355764824540
C        -2.55798766222322       0.24819428639316      -1.13576775273989
C        -3.18892165417868       0.91260090122662       0.08507645433500
C         2.00868319496600       2.01239068214273       0.21611138304787
C         0.41218367300358      -1.42120424776603      -1.29774986537964
C         2.84350041394761       3.21866499597569      -0.23517323844106
C         0.99559596252112      -2.76512364366719      -0.84274227886934
C         3.99157586243585       3.48090121590535       0.74379731409363
C         1.42616068694895      -3.60068936459473      -2.05215073821997
C         4.79271227559455       4.71249846740518       0.32770785226228
C         2.04600639741287      -4.92534087588468      -1.61344616362962
H        -0.97224495323572       2.55659067357109       0.66271353623182
H        -0.14355366605377       1.35068989541390       1.67360994845433
H        -0.79017166351477       0.50704489989665      -2.37454703541653
H        -1.44383570779513       2.00126477512645      -1.68324771527374
H         0.47955732802638       2.70690091431688      -1.13616775571462
H         1.36212230016582       1.26748179254909      -1.69567391046145
H        -0.50184625123099      -0.97075633546911       0.59649942199229
H         1.17362085425044      -0.42045261610727       0.45161633029762
H        -2.58125546798509       1.45423098759786       2.08676135352657
H        -2.06425015301021      -0.15508605685492       1.58481000122750
H        -2.39692229047997      -0.81481022477889      -0.94278491093625
H        -3.22283955848587       0.33644383032933      -1.99864787865373
H        -3.44776731938427       1.94985037426279      -0.15069005530093
H        -4.10424269236567       0.38734862777599       0.36674842824742
H         1.58518751577352       2.22597095693008       1.20095803404955
H         2.66005380521435       1.14128737710772       0.30140839866492
H        -0.54089926582928      -1.60380144699308      -1.80120465916110
H         1.09735727760559      -0.95834597758370      -2.00879742366801
H         2.19880705289056       4.10334583832798      -0.30343012577372
H         3.25704070448198       3.01721288498210      -1.22668688753310
H         1.86309975120290      -2.58803842995901      -0.20272542347407
H         0.24855356695274      -3.30935994766642      -0.25367417818832
H         4.64991428772776       2.60783615977340       0.75646363600523
H         3.59225328924227       3.62359899174924       1.75466871362021
H         2.15864133348301      -3.03238207639335      -2.63332605345663
H         0.55878575189539      -3.79191562751165      -2.69383281143670
H         5.64418023449810       4.84696458258545       0.99473720772567
H         5.16161944548357       4.59409866830067      -0.69145733016607
H         4.17149806334920       5.60931918385090       0.36931211192904
H         2.34308884317857      -5.50394481604180      -2.48815907477100
H         2.92903546899769      -4.74402185623560      -1.00046108179065
H         1.33191906653360      -5.51219900546994      -1.03304145767058
S         4.39741698166608      -0.05806003179652      -1.77538520719593
O         5.28117635614783      -0.59655464204822      -2.77258346949316
O         2.98023376629433      -0.05843013363198      -2.13937499041818
O         4.82898408815900       1.15937989154823      -1.12087560921456
C         4.43799474553580      -1.30153150184803      -0.38880711271641
F         5.58306357609104      -1.29178073375884       0.27623859457216
F         4.21767114348065      -2.54287132712973      -0.82191791746113
F         3.45599940783412      -1.01798219070497       0.49678427325976
