61
C17H24F18NP optimized with DFTB in AMS.
N        -1.09154776943553       0.98045381815273       0.03861504440357
C        -1.81251560662506       1.29870362879709      -1.24452332730633
C        -1.96324875825734       0.06978880566806       0.85918036082857
C         0.16369769875173       0.24282580553207      -0.34030367444746
C        -0.78830568232489       2.22925830606433       0.82413973074049
C        -3.18700685349067       1.91911515660710      -1.02703026748186
C        -3.33658918934483       0.66214189076203       1.13828440149842
C        -4.06590720524946       1.02948000752050      -0.15100033524923
C         1.06212989717738      -0.15388287317085       0.82958550086414
C         0.23559723358610       3.15252889861864       0.18546410788543
C         2.31865390440493      -0.85017812723936       0.29023695775123
C         3.24587205107245      -1.26519942283344       1.43025369358979
H        -1.90916793919888       0.35374576000287      -1.78750432569224
H        -1.17378813760658       1.96879507238045      -1.82291044629025
H        -1.44350415752302      -0.12694158704204       1.79820604630085
H        -2.05546617780112      -0.86635289492156       0.30024977200558
H         0.71374028929109       0.88143693342950      -1.03540161041612
H        -0.15153772044784      -0.65401346761542      -0.88073923060721
H        -1.72873636462102       2.76360866832885       0.94576176332668
H        -0.44845634706661       1.91464892842642       1.81251276741192
H        -3.64479759124440       2.03649809588709      -2.01285105829111
H        -3.09355517722101       2.91285474909105      -0.58810553471523
H        -3.24747676645329       1.53553700622062       1.78499887961943
H        -3.90947399834103      -0.09204249431327       1.68293915681803
H        -4.98455467359620       1.56426609394070       0.09902378592233
H        -4.33161673648868       0.11875737084303      -0.69842633358326
H         0.53565723324947      -0.83597769610723       1.50187634562862
H         1.36017635928681       0.72575498195339       1.40422283231332
H         0.31075173011093       4.03153779906409       0.82472774791896
H         1.22222755689516       2.69746855830460       0.11753326843513
H        -0.07787870035267       3.48171364777771      -0.80344590087996
H         2.84868682485659      -0.16994305861604      -0.38440524501439
H         2.02556801254494      -1.73420437535024      -0.28554990175512
H         2.73886041210374      -1.95772681743229       2.10282010418842
H         3.56243890407458      -0.39251312470326       2.00215965497061
H         4.13035483998507      -1.75656921043166       1.02610695135311
P        -4.08180086247980       4.61326600482470       2.75438020848415
F        -3.76101943605578       3.70342119260974       1.33149327337451
F        -3.44287222497235       3.31513712655452       3.62802841626275
F        -4.70642925751898       5.87722939196687       1.83997267757670
C        -2.26479408802708       5.33333083862045       2.42050488261324
C        -5.87437754211397       3.79987842478082       2.69012917687131
C        -4.35869054244635       5.55970285569014       4.47546505007434
C        -1.93026018206076       5.92294046130417       1.01872376427597
C        -6.14389592982704       2.43813609386402       3.38536709269882
C        -4.80658244342342       7.04636732322837       4.48132836324093
F        -1.35301301318792       4.33864112774661       2.59010082353532
F        -1.93494070803323       6.30827068837123       3.28128411343527
F        -6.20310427670824       3.59097720392842       1.39724509983959
F        -6.76846420671536       4.67808565062630       3.17222906360647
F        -3.22613620977479       5.47925986024056       5.19764127823349
F        -5.29340542580705       4.87696039029402       5.16650911558125
F        -0.63707276571343       6.28114039822239       0.99970446642208
F        -2.64876616998896       6.98753790727893       0.71439678582505
F        -2.07709712734539       5.01987309867325       0.03516462273021
F        -7.43788326562369       2.12637621961365       3.30577446917365
F        -5.46450525600031       1.46660114712184       2.75219321731505
F        -5.79333660998382       2.40788656854369       4.66153179510874
F        -4.75107978900302       7.54587496601531       5.71681687994079
F        -6.05611238527215       7.16480441804098       4.04617253346540
F        -4.02344860941794       7.79260948484277       3.70458038897007
