50
C14H28F3NO3S optimized with DFTB in AMS.
N        -1.45500931794050       0.19325708419311      -0.22141105267506
C        -2.41962165888334       0.66182625461202      -1.27795841328157
C        -1.69899622170435      -1.26326465839807       0.03979571976539
C        -0.06808505899101       0.35686476108860      -0.79608015802096
C        -1.60495480443755       0.97249748637895       1.05593184891869
C        -3.87410889107334       0.39707519749705      -0.92431546531920
C        -3.14439552730185      -1.58042384417214       0.40978084265999
C        -4.10863407584656      -1.08980213071878      -0.66855182227316
C         1.07791446506001      -0.04431245038287       0.12609756715232
C        -1.27839950284298       2.45437334083326       0.94427689623261
C         2.39760423601863       0.11997695821941      -0.64018046376572
C         3.59900572547247      -0.19366985265025       0.25512327887046
C         4.91415572331032      -0.01543665973973      -0.51027193046337
C         6.12036627968273      -0.32125435517769       0.37569945915216
H        -2.15414253780550       0.13573502040220      -2.19743377850711
H        -2.24544816003918       1.72563789321920      -1.43490265733870
H        -1.03169222433359      -1.57719796016812       0.84469017898841
H        -1.42552076998320      -1.79546570103382      -0.87531015945153
H         0.03251960444072       1.40530088555102      -1.07739226588647
H        -0.04093819863576      -0.23682473189501      -1.71210199449037
H        -2.63695311453991       0.85275320638463       1.39022746220573
H        -0.95364753636613       0.49795875420400       1.79423161363207
H        -4.47649216123156       0.72732225444043      -1.77425422854595
H        -4.18119196623112       0.98356785485846      -0.05386709348359
H        -3.39992484606576      -1.13578814248690       1.37561047957031
H        -3.22155245841492      -2.66603135867994       0.51487698870140
H        -5.13865138346868      -1.25903256367381      -0.34621931488772
H        -3.94216204735508      -1.65268446912302      -1.59236622159970
H         1.10008246502032       0.59244792145816       1.01491588880559
H         0.98000823087853      -1.08321834907522       0.45520127207490
H        -0.23490178479345       2.62243943275922       0.68882555377336
H        -1.89700472381336       2.95201376498220       0.20155852810273
H        -1.47384821140060       2.90506304772249       1.91737934843436
H         2.47514261328244       1.14559780692983      -1.01196274286185
H         2.39901863580108      -0.54947184317421      -1.50633578225311
H         3.52409003523648      -1.22350040606931       0.62254630589003
H         3.58894232526835       0.47234459132991       1.12507986190794
H         4.92177289096846      -0.68175143288605      -1.37925909368915
H         4.98300896828569       1.01366071398117      -0.87729004659072
H         6.07950992475045      -1.34997914988242       0.73709726147785
H         7.04241008508147      -0.18853607893041      -0.19050259376595
H         6.14215877308789       0.34820034266796       1.23688133704339
S        -0.58170844198367       2.78704228769310      -3.32154274024180
O        -0.60376467547074       1.33592955171659      -3.47956592421410
O        -0.78390676655402       3.20738449454133      -1.93297222024972
O        -1.33027106977332       3.52796639079850      -4.29998555611480
C         1.19947092073823       3.21007675788044      -3.61126036543290
F         1.66026581108303       2.66128439651045      -4.72766152278668
F         1.93099270163808       2.73576366138505      -2.59150513129287
F         1.39322979647569       4.51984485807900      -3.67434378447583
