35
C9H18F3NO3S optimized with ForceField in AMS.
N        -0.37204453037799       0.37931421594662       0.06867606309156
C        -1.43268050129365       0.64561627287644      -0.94434535277460
C        -0.85428375945528      -0.79297551245704       0.85711316732691
C        -2.68889341119503      -0.07448305269919      -0.49828866001915
C        -2.16448147864602      -1.27040531565807       0.24872501260152
C         0.91307432319642       0.07836393970300      -0.63559020341186
C        -0.23113122476073       1.57197335418868       0.94438360854058
C         2.14445232330084      -0.05025788749657       0.29110134952834
C         3.35983039663531      -0.55063641944667      -0.48554385324398
H        -1.16041504064787       0.24441129767972      -1.94888200597534
H        -1.63974914849494       1.73160098272172      -1.08784520428454
H        -1.04407549441182      -0.53117086983019       1.92425593118578
H        -0.13427703052426      -1.64059877307805       0.86547795056459
H        -3.32309884879461      -0.37504564405301      -1.36114229006966
H        -3.27439337129921       0.57481757472248       0.18928081606109
H        -2.88292614676595      -1.61573925920640       1.02380596264284
H        -1.96588093627011      -2.09899186540508      -0.46749876846389
H         1.13254451310714       0.88196669498115      -1.37637083968573
H         0.80591378970036      -0.86835509025042      -1.21548203952698
H         0.21635356513575       2.42433220684151       0.38562446942176
H        -1.22051806177350       1.89743076964180       1.33778243107110
H         0.41003783270984       1.35405220598220       1.82626484183004
H         2.40195276836934       0.94209363539674       0.71790830153730
H         1.94507936034970      -0.74996218406108       1.12914837695825
H         4.25330998267811      -0.53946806652269       0.17200854401090
H         3.19021066356239      -1.58954424331322      -0.84042898897817
H         3.56104721665365       0.10771634990028      -1.35730234373085
S         5.29575761373533      -3.22375619985973       3.14967781913742
O         5.68046656609681      -2.34698098583006       4.34998021697546
O         4.66512864013695      -2.22142750431016       2.17400646864049
O         4.08559245509690      -4.01465796855086       3.66666194326501
C         6.63999029729835      -4.22749783493038       2.46214617064165
F         7.10928698627620      -5.09200999233057       3.43191870590076
F         7.66512759400339      -3.40022915401545       2.04609926207293
F         6.16742592686823      -4.95348132307743       1.38607899055847
