32
C10H15F3N2O2 optimized with ForceField in AMS.
H         0.48805077241591      -0.45602441013272      -4.91462483500254
H        -1.17102022888308      -0.68685904863197      -4.23364316355733
H         0.02253703128461      -2.04222843464423      -4.17406681952101
C        -0.09697788831932      -0.94043206650882      -4.10496641079819
H         2.50416294313189      -0.07198667483037      -0.37257481528876
H         2.43475660004710      -1.15660370214456      -2.81533850896940
H        -1.35546597975558       0.46396651418199      -1.96432783213894
N         0.38533173044395      -0.47901995599779      -2.81027269905282
C        -0.31529951888010       0.18012764182493      -1.86768584557275
N         0.44199356286908       0.42396370068660      -0.78058011513713
C         1.65730327563357      -0.09634066541477      -1.04534169870145
C         1.62229743936574      -0.65457171254830      -2.30692246497792
C         0.02809383397362       1.10608309672354       0.44221909486569
H         0.81835251540090       1.82746697941905       0.74530627988232
H        -0.90651136590271       1.67920054119308       0.25284176361944
C        -0.21431633705374       0.08558397766939       1.55756531114896
H         0.72890722044647      -0.46848057000919       1.75824857519740
H        -0.98679184517002      -0.64127259717451       1.22230917086767
C        -0.68745027401060       0.77213336533710       2.84261406494022
H         0.07587944847684       1.50514905837344       3.17551930226826
H        -1.63551744934165       1.31978150055817       2.65032770431365
C        -0.91910531855061      -0.24441567774146       3.95712394886768
H         0.01753989197016      -0.80118762601383       4.17375979115402
H        -1.71327062470082      -0.96322788032528       3.66254865769571
H        -1.24073954961577       0.28102929333131       4.88106296412695
C         4.02435615669474       2.95051262628963       4.65217028452067
O         4.63025298829491       3.83175878860337       4.06305474296654
O         4.43751832788378       2.55042333886713       5.72879945381511
C         2.77779048798726       2.35870510489666       4.06382066688368
F         2.97111486931693       1.01022275682134       3.82868689233033
F         2.45792559954077       2.98152672637480       2.86993771468777
F         1.72922189600576       2.51909278436625       4.95046679816618
