34
C10H18F3NO2 optimized with DFTB in AMS.
N        -0.58648490767767       0.60397854586048       0.38435850841468
C        -1.63514161814030       1.30130839961509      -0.46391461875911
C        -1.15447200192568      -0.74695920720095       0.71380888397521
C        -2.88568506897763       0.42584542640836      -0.43831908026458
C        -2.66042474397089      -0.53946633569306       0.72168777961270
C         0.68792293630356       0.49871293338982      -0.39189585262439
C        -0.37083184982946       1.37785902338618       1.63907488045630
C         1.81345799758527      -0.22499411840369       0.34704324232402
C         3.01325446147698      -0.39373146861997      -0.58461645764905
H        -1.24362327215034       1.43083934304742      -1.47354743101753
H        -1.82625239880231       2.27818963343986      -0.02095302428709
H        -0.75149124199652      -1.08896618703862       1.66679354949456
H        -0.86068592754244      -1.44082950685981      -0.07824602423436
H        -2.99387277430394      -0.11678999293365      -1.38115420814474
H        -3.77048617085303       1.03959741328787      -0.26769862467527
H        -2.98443143040047      -0.07821069806394       1.65675147041045
H        -3.18645860303386      -1.48483686366914       0.58570991268799
H         0.99516866008547       1.51894070539604      -0.63658583577377
H         0.45504888347428      -0.02971254481257      -1.32064370657788
H         0.04769575439944       2.34928421703107       1.38653963234597
H        -1.33655722243256       1.51813737495772       2.12384557893848
H         0.30409623035697       0.83321911690421       2.29501272918360
H         2.12070528376994       0.34843651827805       1.22487230756831
H         1.47404029725693      -1.20833519255334       0.68314321022139
H         3.81720210854584      -0.90527250656660      -0.05691027209653
H         2.74014075216771      -0.98352387949678      -1.46017865928434
H         3.37816153583343       0.57812518679349      -0.91769818941459
C        -3.50982259877284       3.35949873679383       2.12961444398232
O        -3.25913143393154       2.19909860928241       1.77305618732951
O        -4.51896592543665       3.95081958139390       2.42537141963909
C        -2.12589107536777       4.25107020372353       2.17774594961389
F        -2.26246394715313       5.54964908237166       2.43999093105069
F        -1.46725872748172       4.16306528668809       0.97883466198143
F        -1.24639780787516       3.75226143296305       3.08577225407265
