47
C15H25F3N2O2 optimized with ADF in AMS.
N         1.26368920534291       2.54070609145636       0.53858802708058
N        -0.88021025928597       2.73147013077251       0.35857757301857
C         2.66336387590603       2.29008607996702       0.17359055350795
C        -2.21075671099089       2.73132279291285      -0.27418685672244
C         3.02841743514574       0.82589892947495       0.41382057852789
C        -2.50318089034720       1.37717438364324      -0.91558559097054
C         2.17245863589098      -0.13962399735767      -0.40240753702464
C        -2.37020056406837       0.19222266234914       0.03708804971715
C         0.26477046595224       2.69387701945389      -0.34448843760913
C         0.74709781026523       2.47080868979515       1.81956211126027
C        -0.60753335044415       2.59060374181871       1.70284277780195
C         2.54175770552030      -1.60565684679127      -0.18336171228762
C        -2.62739765294430      -1.14791892625893      -0.65134608814175
C         1.68286545574644      -2.54649448366331      -1.02606241405466
C        -2.48121865727243      -2.33642603705865       0.29526873088249
H         3.29304205026056       2.97649401182842       0.76034146139849
H         2.75995389211918       2.55054098563173      -0.89008701864723
H        -2.20673315448110       3.52032087784917      -1.04053832303448
H        -2.93545143085029       2.98315659413956       0.51532292113763
H         2.94514165431299       0.59374266499265       1.49187827511354
H         4.09328895481393       0.70484148742425       0.14721207057727
H        -3.52724896094053       1.42543677396194      -1.32687327026336
H        -1.82504728903290       1.26720092149708      -1.78013440519824
H         2.26621437703636       0.11165077744359      -1.47282108434503
H         1.10630664935485      -0.00068614798154      -0.14402871255104
H        -3.06902004762253       0.31111968082799       0.88911246736717
H        -1.35202458999514       0.17365326568205       0.46946468242988
H         0.27332430887338       2.78658221911249      -1.48025310235978
H         1.37664026278974       2.34640136872381       2.69182453949632
H        -1.38842074294113       2.58911841274921       2.45321750821043
H         2.43343665309275      -1.85606318060045       0.88829909610899
H         3.60881476782910      -1.75334919456281      -0.43152959208461
H        -3.64139944209055      -1.14188049192885      -1.09163053850489
H        -1.92520105825476      -1.25337991792371      -1.49791590924600
H         1.80210306729418      -2.32844066035248      -2.09916856692279
H         0.61555666876434      -2.43187748518090      -0.77919964062919
H         1.95591818852683      -3.60034783240495      -0.86163652255779
H        -3.19111133429468      -2.26255902568435       1.13536281388005
H        -1.46498067427433      -2.38322290115038       0.71990984604091
H        -2.67004932542228      -3.28982441847302      -0.22182000282025
C         0.12261816071799       2.97521300791552      -4.07566325621762
O        -0.40309756498237       3.04594082549922      -2.91462263775522
O        -0.31667641443993       3.28669201412674      -5.18270719208264
C         1.56799755705632       2.36393982039923      -4.04324019653759
F         1.55625379711826       1.07220112569880      -3.54600210720733
F         2.41100199117509       3.07910742366794      -3.20048073088137
F         2.17909612437011       2.31228658535805      -5.24684037100030
