49
C15H31NO2 optimized with DFTB in AMS.
N        -0.90940199144260       0.45753641466266       0.19972181221411
C        -2.11333817012757       0.50603693279782      -0.69456982600442
C        -1.01280261855239      -0.74930557065093       1.08875506386518
C         0.28777410589383       0.28953989340826      -0.70228935940940
C        -0.79251323272368       1.69614104855679       1.04554400425936
C        -3.43423379405307       0.49875367696352       0.06842453027095
C        -2.30374738515957      -0.78148352247803       1.89207624646789
C        -3.52807651195814      -0.72398262805236       0.98043597834865
C         1.63337209993126       0.20476583404388       0.01261401932598
C        -0.47243476748871       2.96647043976677       0.27504358843626
C         2.75571802500113       0.12483939214097      -1.02610167707178
C         4.11449857725652      -0.02227114115561      -0.33431830836232
C         5.25210503326065      -0.10747813045788      -1.35616157995075
C         6.60549151121146      -0.27761044288682      -0.66779308324579
H        -2.06179812177682      -0.37413548132985      -1.34185613077057
H        -2.03550937094396       1.39944256436808      -1.31727977767266
H        -0.14129070568378      -0.74663691972510       1.77149226610327
H        -0.95544204333207      -1.62716632636091       0.43891887002348
H         0.27854018464415       1.12991732117462      -1.40193115928278
H         0.11467987822523      -0.62686601455749      -1.27478978853860
H        -1.73919697972455       1.81828769212672       1.57227009583467
H         0.00137705223439       1.50728770767179       1.79060989915754
H        -4.23813111503176       0.47699888008134      -0.67257818011771
H        -3.54774120398407       1.41556801706128       0.65237674668974
H        -2.33089352836407       0.04049975374255       2.61172668146354
H        -2.30685468641587      -1.71541342868753       2.45945720316689
H        -4.44028137067817      -0.66648180262430       1.57911595582733
H        -3.57752462455923      -1.63160225886559       0.36981063797612
H         1.78708553229124       1.07680190769057       0.65079180246310
H         1.66708389184723      -0.67757239005878       0.65522489237112
H         0.54658504537818       2.95614680698478      -0.10803475687409
H        -1.15811753736216       3.14744792264582      -0.55304413009481
H        -0.55718696956119       3.79742885549952       0.97510775972123
H         2.75261759984440       1.02926523584407      -1.64546486654388
H         2.58671655899334      -0.73305142513916      -1.68746217971616
H         4.10889360939089      -0.92499622170720       0.28459909227172
H         4.27932695109635       0.83395672111365       0.32729558078991
H         5.07718008836112      -0.95493897424869      -2.02831237898577
H         5.26499060647383       0.80346886697186      -1.96487686076693
H         6.62253714291094      -1.19786848768869      -0.08244874169565
H         7.40209902916594      -0.32354705597507      -1.41095416112688
H         6.80151472751413       0.56151674812561       0.00084591161743
C         2.50750993394129       0.05364749161207       4.66973353438094
C         1.68251522124420       0.13203856189704       3.36434523934540
O         1.47990424306976       1.27143526957073       2.89210368940142
O         1.29309617766102      -0.95551635892517       2.88550091288519
H         2.58826060305062       1.03724129823912       5.12799826684420
H         2.03747159812922      -0.64623912212140       5.35845712355115
H         3.50359955440112      -0.31452420976535       4.42533632785721
