50
C14H15F18N2P optimized with ForceField in AMS.
H         0.68888181489819      -0.55857337851519      -4.92412067668659
H        -1.03325093276070      -0.62608943780451      -4.38177612139754
H         0.01185854199332      -2.09331599403272      -4.24245441117998
C        -0.00384032454684      -0.98566979609082      -4.16891610453729
H         2.40130318207146      -0.29133852342658      -0.27029965207502
H         2.41154623068396      -1.38946444521414      -2.70715272429638
H        -1.30241332511785       0.50245626250187      -2.11099911995265
N         0.41450744318519      -0.57759442242359      -2.83401296964535
C        -0.29828450902495       0.13401534939112      -1.93947629634213
N         0.40121072194528       0.32978433377488      -0.80421584139723
C         1.59475443253722      -0.27024259889850      -0.99172630634887
C         1.60116817770340      -0.83586973259725      -2.25077436689347
C        -0.03477408468932       1.07161074910907       0.37700495325678
H         0.70098672159909       1.87558007462327       0.59693526713537
H        -1.01870458452721       1.55069204422100       0.17607030592326
C        -0.16233198231654       0.13380915098047       1.58156025177232
H         0.83668558236530      -0.28983516753112       1.82519785278716
H        -0.84659106127641      -0.70339693241388       1.32063922613075
C        -0.71172471552185       0.87914367462011       2.80265924896291
H        -0.04321890487874       1.73101632861044       3.05529548306630
H        -1.72259919850280       1.28101065129113       2.57235279949706
C        -0.81189883292560      -0.04488116461557       4.01204024663793
H         0.19566130360304      -0.41565774174267       4.29359135470899
H        -1.47237749060874      -0.90910958467381       3.78598732741847
H        -1.23763313101025       0.51325267751327       4.87229590784571
P         2.24273791617016      -5.12637999796272       4.47373795379851
F         2.96160953468367      -6.51863486355360       3.75308875039177
F         0.89872728236370      -5.62688081772883       5.42926215018982
F         3.71317144103819      -4.65800246721314       3.71334371275912
C         3.04279080344941      -5.89578738924013       6.05741218320472
C         1.06076593369870      -5.59177967145277       3.01355555711981
C         2.04081686660570      -3.21781365876796       4.56544073988198
C         4.58528144922295      -5.85815193428077       6.12030746458350
C        -0.26377370665517      -4.79667515727979       2.88593431843189
C         3.04701274447796      -2.43031462924128       5.42486667881400
F         2.67289432060997      -7.23304147590240       6.14629053169919
F         2.55802670976802      -5.27172879494595       7.19614870283169
F         0.69601363863904      -6.93045587092153       3.12300912573198
F         1.74848088903841      -5.43396526564169       1.81968932196397
F         0.77925441396888      -2.94318148398779       5.06105333805454
F         2.12587516994697      -2.69449226504437       3.28567527101045
F         5.00274426363243      -6.50904979974829       7.26774508860537
F         5.05564292458857      -4.56472210749759       6.17435359968880
F         5.15331033233104      -6.50063203259452       5.03566988845137
F        -1.06141493075572      -5.41773986694897       1.94059821106609
F        -0.97003458343748      -4.76478754662844       4.07319119788070
F        -0.04674988554094      -3.50578679495024       2.44958777643509
F         3.07162589032414      -2.88544436665862       6.72512891087803
F         2.65885851717526      -1.10243516061027       5.45557421632022
F         4.31698995337851      -2.47897022375463       4.88043942541685
