32
C10H14F3NO3S optimized with ForceField in AMS.
N         1.11350809632641       0.00948697931083       0.53978314261802
C        -1.24956487052395       0.02232329350872      -0.13356018659027
C        -0.26624744981253       0.00339102552632       1.04149973292529
C        -2.70288659173143       0.01129990925624       0.35128660408850
C        -3.67227716596455       0.01453015065746      -0.82762767118863
C         1.73312555262152       1.19939300803329       0.27082878551975
C         1.75467490327249      -1.17512007346572       0.30024437865195
C         3.02493244888641       1.22203195358810      -0.26099000964198
C         3.04122632166638      -1.18865893449514      -0.24376645333256
C         3.67745630028692       0.01894501771662      -0.52602432389608
H        -1.06876081790374      -0.86876860044518      -0.77235622370228
H        -1.07011691725006       0.93406646018095      -0.74455473367326
H        -0.44507493208307      -0.90021103644642       1.66675577534239
H        -0.44048023476292       0.88720862086294       1.69541811116075
H        -2.88735362875983      -0.89672534565830       0.96592561495263
H        -2.89566515018962       0.90817733814708       0.97943039918318
H        -4.71679545423712       0.00936395052447      -0.45116925116724
H        -3.52265738424176       0.92395977853941      -1.44805903677738
H        -3.51705371459371      -0.88761188414926      -1.45747724221318
H         1.22563096963678       2.13829480269237       0.45869235742849
H         1.26607647497086      -2.11790580354298       0.51519362222723
H         3.51213926725371       2.16514378244927      -0.47222348445035
H         3.53776669007259      -2.12840973804834      -0.44841779844372
H         4.67371275485755       0.02245177041060      -0.94920276655807
S         0.23806422505705      -3.07970697784638      -3.41657755113679
O         0.30447971081935      -2.90632173433567      -1.89389797013304
O        -1.26186887696084      -3.27869632851251      -3.67784704827777
O         0.81878901664687      -4.48498302061108      -3.62986206462338
C         1.02525824209589      -1.76181559612807      -4.38370621607775
F         2.36237512108711      -1.67718779789742      -4.04605587737159
F         0.40502373630584      -0.55725341593614      -4.11290745721072
F         0.90757168785138      -2.04802066878603      -5.73037029183217
