39
C11H14F6N2O4S2 optimized with DFTB in AMS.
N         2.92948763233982       0.79784773189693      -1.52180275883246
C         1.34728165120658      -0.30042702018925       0.00916453073519
C         2.45655524550330       0.74200331935724      -0.13372353411920
C         0.87138070304574      -0.37145934223937       1.46365731877582
C        -0.23568189644638      -1.40968253886584       1.63126620353144
C         2.62939572870847       1.85391273766413      -2.29197753299215
C         3.75930932251416      -0.16530104797773      -1.95258110958387
C         3.13593203632108       1.95028695789861      -3.57033231912223
C         4.29061012937296      -0.11457226599689      -3.22602826630030
C         3.98305740377406       0.95679129614222      -4.04979920847143
H         1.72375121663177      -1.27827921521929      -0.30660657271186
H         0.51242733577340      -0.03241335775784      -0.64634912527196
H         3.32158021407017       0.48961979926816       0.48662454079856
H         2.10478541922136       1.73658347218170       0.14499892385699
H         1.71750410404487      -0.63033447105575       2.10791211542955
H         0.50245411942407       0.61184959034163       1.77243476241947
H        -0.55814340377866      -1.44086796082273       2.67165996359249
H        -1.09457906928782      -1.15824560655846       1.00772988024352
H         0.12254767238098      -2.40005996112102       1.34794877236645
H         2.00508424501482       2.62193809758295      -1.85333353961914
H         3.99462542895581      -0.96558915105849      -1.26307527924963
H         2.89108368421068       2.81546944623272      -4.17275524911048
H         4.97711297867696      -0.89173346156540      -3.53624773774462
H         4.41053901117472       1.03128749054007      -5.04191417334769
N         5.47592080374764       1.02344737276602      -0.43107507768351
S         6.82877120076418       0.18872496140505      -0.68400241189895
S         5.55900100592614       2.61156485308383      -0.21164540108503
C         7.65704518120939      -0.05579522180512       0.97801827677188
C         6.25380827989749       3.41266045193641      -1.76417121549005
O         6.37711587139692      -1.13462213507689      -1.05948142813530
O         7.79630554585331       0.84248496408636      -1.52766402088405
O         6.41083683342214       3.03846489399896       0.86577217841620
O         4.17682426923151       3.05465502111287      -0.21412017963077
F         8.36276332584025      -1.17353188702048       0.94842776496727
F         6.72575268462926      -0.16317058531672       1.91531651768425
F         8.45258098303217       0.95251492888763       1.26260574885210
F         5.65058048090072       4.58180077093859      -1.93288902999288
F         5.96574448434528       2.65153092805632      -2.82099002910605
F         7.54996341035056       3.60315754566885      -1.69835413125754
