25
C9H10F3NO2 optimized with DFTB in AMS.
N         0.91023394781997       0.51839555508332      -0.19818653469994
C         2.14652426689206       0.75012943570369       0.54671110010160
C        -0.22774447647427       1.20611847313078       0.11944554546312
C         0.99185930535160      -0.30629368442881      -1.34917962226246
C         2.29877555578346      -0.28223127317600       1.66305317056444
C        -1.40536807393659       0.95895194280442      -0.49639511231064
C        -0.33252040872868      -0.67713425903373      -1.90282314101426
C        -1.45288940526336      -0.04197755223616      -1.51604545655927
H         2.98942018916059       0.68934665902510      -0.14827846310561
H         2.11490987274458       1.75881092908652       0.96853719642052
H        -0.12831728167434       1.92144327272696       0.92791605445457
H         1.64937384595214      -1.16793537481829      -1.17512606611814
H         1.45355798401896      -0.22196043757173       2.34835723604117
H         3.21770356988102      -0.09127608131510       2.21596954046337
H         2.34065081211625      -1.28913073124692       1.24789198673177
H        -2.29908245808663       1.49673888998983      -0.21413791076827
H        -0.33052997046266      -1.44541493869932      -2.66533330156362
H        -2.41104850761311      -0.30382735341559      -1.95027653127939
C         1.46715413539502       1.59620519969654      -2.85955532055048
O         1.82399907092224       0.42109043603934      -2.42398325312395
O         0.53976228761426       2.27489809303427      -2.53761176713498
C         2.50422092060654       2.07471705354497      -3.94431015186476
F         2.16304145160564       3.25592157828897      -4.44728401688986
F         2.58379882163162       1.20001315509792      -4.94909726912487
F         3.72119936774369       2.18973563338900      -3.40206538447007
