45
C11H20F6N2O4S2 optimized with ForceField in AMS.
N        -0.41649744072721       0.16562873932598      -0.07608481694314
C        -0.99625211910109      -0.88974973226852      -0.96230014815806
C        -1.46202540405428       0.41354409127661       0.96392852266653
C        -2.45723491292685      -1.06708865265637      -0.59581415540156
C        -2.50567772141120      -0.68040291551791       0.85544713795354
C         0.83043821188190      -0.33871850501217       0.58482907731705
C        -0.17399424020324       1.41142306046467      -0.87329969872099
C         2.00195793635801      -0.62970054070748      -0.38247647890406
C         0.43617721175381       2.57539096957522      -0.07075797585735
C         3.15919468984050      -1.30016058328559       0.35326409809469
H        -0.50725594735368      -1.87999499348288      -0.81298219453425
H        -0.90415716538396      -0.65344595772676      -2.04709808964122
H        -1.99350340636367       1.38018143706186       0.80445342578133
H        -1.05429724033675       0.44600556400616       1.99992036273092
H        -2.80251244094148      -2.11211267329820      -0.75315440537941
H        -3.08432833078347      -0.36966850845985      -1.19453979725274
H        -3.51610823807279      -0.32355028360878       1.15159990347401
H        -2.21193147126072      -1.54698278817042       1.48858266048528
H         0.59920948115605      -1.27000721045001       1.15317009541935
H         1.18722623359361       0.39152599506456       1.34076790672451
H         0.49166073845113       1.20348595566075      -1.73935287224546
H        -1.13173214815982       1.76872611914218      -1.31711149941112
H         1.68152518105138      -1.29421696361144      -1.21114201320274
H         2.38360264800822       0.31485643518842      -0.82197282203508
H        -0.14488980586644       2.79074001217800       0.84890184293137
H         1.48957707252076       2.36384201378853       0.20345831554092
H         0.43465101442456       3.49021615295084      -0.69995175381041
H         3.52879875351156      -0.64318691215846       1.16953918241477
H         2.83355866382378      -2.27132717451789       0.78309622713161
H         3.99265366604492      -1.48858542889384      -0.35584906956431
N         0.04731201130012       0.32387247940028       5.94437150071210
S        -1.43539586436203       0.53934836585083       6.60878653603529
S         0.70726617967943       1.38621671567175       4.88462694895235
C        -2.66154054004391      -0.25138478491938       5.58619910829325
C         1.80298550577379       2.48537810151905       5.75721006452320
O        -1.46080508309158      -0.09300034785389       7.97159522257901
O        -1.75322394716877       2.00400179442963       6.72883381457562
O        -0.36174391695003       2.18706011283463       4.19392379155915
O         1.50722561249349       0.62747599371574       3.86557156810874
F        -3.90534669358525      -0.12546587617085       6.17515055276320
F        -2.35425884770043      -1.59168337827832       5.44871185293455
F        -2.68457416337829       0.34251447415247       4.33902193704466
F         2.32738610113944       3.41145770013505       4.87551799160861
F         2.83308944418722       1.75744797444502       6.32186833662319
F         1.10784037743328       3.14368685731080       6.75335897068310
