50
C14H15F18N2P optimized with ForceField in AMS.
N        -0.66130014592700      -0.89775498186882       0.39489082319277
N         1.53126209303710      -0.53985885569546       0.32041282459166
C        -2.06707462027019      -0.79142126745024       0.77970702489472
C        -2.87775067492913      -0.04749354075159      -0.29007399707898
C         0.38202623765783      -0.26639939772051       0.96763014078082
C        -0.15458322420815      -1.59962818033492      -0.63898947646818
C         2.84815126765025       0.02495474582059       0.60010809584903
C         1.20577662142160      -1.37382142542765      -0.68787375251339
C        -2.38684275593433       1.38583996716040      -0.48927214703816
C         3.16890436916683       1.13198297501160      -0.39768783585724
H        -2.15974187047185      -0.25713473237953       1.75105089160236
H        -2.48273516263365      -1.81259131809986       0.91672148158806
H        -2.82273321249607      -0.59511593834506      -1.25542668176258
H        -3.94313096194809      -0.01577870232890       0.02212977615449
H         0.30093762798767       0.40659631232060       1.81234148297624
H        -0.73344289824316      -2.21217575009970      -1.31813481383325
H         2.86934969694991       0.44786436832375       1.62827715817201
H         3.61847583304424      -0.77388792123613       0.53982195954178
H         1.90187820606797      -1.77311912589629      -1.41421257398681
H        -1.35439270754696       1.39001299264902      -0.89885803665526
H        -2.40201527884690       1.93809936234620       0.47452936440706
H        -3.05114245091230       1.90890542104600      -1.20890578380466
H         3.17449939825495       0.72814792848519      -1.43232753976689
H         4.16827411490514       1.56054507199002      -0.17362282906294
H         2.40821389377343       1.93864873994685      -0.32546933910834
P        -5.89327595617126      -4.40491867295096       3.66227812181485
F        -4.91565725125223      -2.98861299355544       3.70670513728360
F        -7.42950698510052      -4.14144037821354       4.39561645760281
F        -4.56264603471331      -4.82608488690484       2.65735731527454
C        -6.79385409292011      -3.30148460864987       2.34593141498571
C        -5.15148381574830      -4.32318640110635       5.44801291146481
C        -6.18083932942826      -6.29737425606782       3.39611332646955
C        -5.95637383799201      -2.78771842601018       1.14481339240673
C        -5.65621486070920      -5.36470807770199       6.46938743120435
C        -6.69996491242218      -6.74190181455039       2.01348204810773
F        -7.29807679505406      -2.16868439761785       2.97321358056875
F        -7.87639007137494      -3.98655586842760       1.83345295958332
F        -5.42679375264037      -3.08075224159999       6.01133781266016
F        -3.77353571026324      -4.46615931338018       5.36753200230098
F        -7.12064824387961      -6.73487257679969       4.31254047389669
F        -5.00583883399684      -6.99159963315993       3.65086037019536
F        -6.80777038854597      -2.19845254846814       0.22673716114116
F        -5.27749508177242      -3.79835100781859       0.49847992642003
F        -5.05158142872028      -1.82404184819718       1.54784352772092
F        -5.13376845720481      -5.05427711695953       7.71297028310545
F        -7.03386840019176      -5.34549390840446       6.57632128375831
F        -5.22956198639610      -6.63793479815915       6.15200281463501
F        -8.04508233876303      -6.45347585379660       1.87931981367988
F        -6.55880189328726      -8.11387995788798       1.90104470062623
F        -5.99651684550108      -6.16135077207733       0.98127310357873
