38
C12H19F3N2O2 optimized with DFTB in AMS.
N         1.82347705794800      -1.32552517895714       0.02804903859070
N         3.00790871668268       0.36545301386402      -0.57483966553547
C        -0.50203869365362      -1.89002572582903       0.64406821538905
C        -1.17339942912755      -0.77422789473668      -0.16115119294458
C         0.80336163879091      -2.36880269988699       0.00521384481781
C        -2.56029897536417      -0.44099597897538       0.39620018142391
C        -3.21870242050159       0.68104303191005      -0.41301665135972
C         1.92366287219848      -0.34895293568926      -0.86820434582908
C         2.86219492926890      -1.23327253458638       0.91339211350982
C        -4.60736171478072       1.01707768707434       0.12745615814612
C         3.61334028028126      -0.16625626496989       0.53354943264980
C         3.49033795379716       1.49860097185378      -1.34746024770226
H        -0.30765238658195      -1.55234489564018       1.66737570822916
H        -1.16962119192584      -2.75512987137409       0.69537580070540
H        -1.26456461723586      -1.08366226599651      -1.20668820719130
H        -0.54874854477771       0.12498163886454      -0.13143291019643
H         0.65047587018158      -2.63985392909267      -1.04450191911676
H         1.19967671564865      -3.22936382183197       0.54906008714036
H        -3.19115290098102      -1.33577059367930       0.36215124985819
H        -2.47023513955340      -0.13535541320776       1.44482391216886
H        -2.58670302403093       1.57487153736855      -0.37564185319122
H        -3.29963235554158       0.37275182898057      -1.46019759253344
H         1.26114012393745      -0.17777914394074      -1.69544101691375
H         2.98797629295423      -1.92935355803654       1.72421655491618
H         4.51504610628098       0.24808203745855       0.94931217894748
H        -4.54552950861449       1.34554090065627       1.16620398962985
H        -5.05425247622814       1.81663887736095      -0.46364239894788
H        -5.25853386891887       0.14320381527123       0.07824001692138
H         4.55082247887927       1.36131827090355      -1.55692142790345
H         2.93100784802812       1.54414906152471      -2.28005747235414
H         3.34424961021215       2.41712720615871      -0.77749385955228
C         1.04169035057304      -1.80480706863249      -3.95184951613230
O         1.57484193095354      -2.02132252522835      -2.85884671649882
O         0.74754445327423      -2.48002325659377      -4.90648071592773
C         0.62613273551951      -0.20294098677781      -4.07158823698543
F         0.13433276007533       0.21866290845767      -5.23325352209844
F         1.69213943682774       0.60643919261184      -3.78133156406318
F        -0.29901079739577       0.11070552744359      -3.11324547306637
