33
C9H15F3N2O3S optimized with ForceField in AMS.
H         0.45332613002414      -0.44338164398893      -4.92853363025971
H        -1.22181017629594      -0.65170513573622      -4.28285357556645
H        -0.04421020630014      -2.01845134139426      -4.18689195430798
C        -0.15374073322951      -0.91509080445274      -4.12764387810789
H         2.38309614254803      -0.00507683196145      -0.36064501515770
H         2.36464398394582      -1.09521885612746      -2.80277762037310
H        -1.46276279096426       0.46860514882369      -2.00239563322222
N         0.30409984392066      -0.44784828806720      -2.82579171251175
C        -0.41887040367867       0.20092176880440      -1.89215863558964
N         0.32049357283666       0.45527679023105      -0.79482720987857
C         1.54748972258331      -0.04336279225138      -1.04569286328244
C         1.53755687013981      -0.60449039640047      -2.30619431776261
C        -0.11963639537615       1.11848188042926       0.42989666442864
H         0.61314520208380       1.90916557669495       0.70273825692082
H        -1.10534992181044       1.60541903224884       0.26015496890298
C        -0.24689496875537       0.09875736652821       1.56526091643234
H         0.73284173937678      -0.40326823585953       1.72379855005427
H        -0.99452812456307      -0.67161666406293       1.27380526450990
C        -0.68592842084596       0.77424562792156       2.86852558243548
H         0.09027139974600       1.50259703557607       3.19006151623018
H        -1.63931925717857       1.32283655884074       2.70647576671917
C        -0.89237906585754      -0.25297097444436       3.97791226073571
H         0.04973571040814      -0.80921634746462       4.17046492618482
H        -1.69101779244889      -0.97111031960060       3.69362194223370
H        -1.19752007553517       0.26438714766204       4.91175441069393
S         5.55199509684089      -1.23599506984450       0.08128483169906
O         6.58292543231209      -1.15920751996297      -1.05453893011476
O         4.36816520293233      -1.96436516546282      -0.57209450127749
O         5.05296617232876       0.21199129260923       0.19660592674733
C         6.15566333401249      -1.97222495639342       1.62679575757275
F         7.21693962892025      -1.22986842455596       2.10828703848081
F         6.57182847298970      -3.26816332347907       1.38900454063225
F         5.13880938739001      -1.98055891515916       2.56239150719816
