47
C13H13F18N2P optimized with ADF in AMS.
N         1.68712154274162       1.05573252100417      -0.95793238877934
N         0.37405618451872       1.36123134424864       0.74639163465662
C         1.22217143127731       0.49960219482580       0.16769315918841
C         2.68800354209473       0.47796156918425      -1.87805546961408
C        -0.33040402524252       1.15629777184570       2.02735096284137
C         1.12443288739290       2.30543176813744      -1.09917682498797
C         0.30113286428621       2.49650410189923      -0.02909208177398
C         3.29055839750695      -0.80748195031273      -1.35359684356472
C         0.51006637817162       0.38575933439994       3.02796240163480
H         1.51129931684482      -0.46199352546436       0.56292852117208
H         2.17921989186943       0.32091425843493      -2.84224630913569
H         3.46689971116887       1.24279627287912      -2.00059251219975
H        -0.54995041909427       2.16266458040289       2.40759421961044
H        -1.28304552696394       0.64794690063133       1.80729204717247
H         1.39340139141266       2.96338716793287      -1.91573791094306
H        -0.29129162895881       3.35342985812912       0.26523704488652
H         3.78813710441255      -0.64181660584336      -0.38712188199292
H         4.05885362177561      -1.14333888139677      -2.06406115950513
H         2.54347857038699      -1.61087401154644      -1.26612488682877
H         0.66471767793279      -0.65888318516649       2.72033655389864
H        -0.01949109903145       0.36504706419250       3.99098673578002
H         1.48210539099283       0.87807811499599       3.17407215528145
P         5.60324347649375       3.50517845381461       1.96702303400055
F         5.55414632097784       3.99841158731685       3.55277052433910
F         6.07869132936732       1.97473392789163       2.42726448388498
F         5.08271587685825       4.99023532353586       1.39518435007914
C         3.69264520056048       3.02505349209054       2.32300041597791
C         7.44456578697088       4.22998429651682       1.92495325486850
C         5.67045365116487       2.76168261984593       0.08138662598758
C         2.68989802552257       4.18833271556922       2.61730545502419
C         8.60103793485451       3.36209807871335       2.49708944576900
C         5.11979835619813       3.60698384741104      -1.09675059329723
F         3.63375735677317       2.19628677558155       3.42507058447390
F         3.04629176301997       2.32223907910012       1.30751267589075
F         7.46192112581392       5.38373345774460       2.67701461239096
F         7.82883804063214       4.60953491413536       0.65694649253397
F         4.98213658718021       1.55064510512011       0.00454296119179
F         6.95794854913792       2.43862636584419      -0.27196286480318
F         1.49489468936263       3.63881970344746       3.06133652354006
F         2.38599704775062       4.87718443362777       1.48920757552412
F         3.10118048563676       5.04646749245239       3.55804106189183
F         8.36313934864510       3.02629805017346       3.78581102726252
F         8.79743183812341       2.22889701494390       1.78185451719915
F         9.76451204251243       4.07372380217056       2.45910598388797
F         3.79974943264363       3.90159377668163      -0.92135799018122
F         5.19963624661187       2.88921061308517      -2.27192387998995
F         5.79791662669199       4.74863677437208      -1.27930439284378
