26
C8H11F3N2O2 optimized with ADF in AMS.
N        -0.10977696536343       0.29013910167220      -0.27232407334215
N         1.98522672233549       0.63436579965787      -0.72024266400920
C        -1.30590883223813      -0.09885843973765       0.48632788698598
C         1.14211095022846      -0.01195946221170       0.09657525505421
C        -0.06197152267259       1.20044181960603      -1.30844551885373
C         1.25379213457506       1.41082424386405      -1.59319492555854
C        -1.40783640355002       0.67812044210081       1.78909609983964
C         3.43531165108165       0.63582079903253      -0.55325826358127
H        -2.16690988615252       0.08288968633764      -0.17379760904945
H        -1.24637517513738      -1.18495753880822       0.65808653298445
H         1.43463404862083      -0.59404892752106       0.95924948609777
H        -0.95784450474672       1.62921712575320      -1.73788337903863
H         1.72792421007194       2.06050248523308      -2.31649511219290
H        -0.52966886444305       0.48805995893882       2.42399075897451
H        -2.32085351888113       0.37441496083773       2.32214443850614
H        -1.42987531686742       1.75882828771610       1.59302244774326
H         3.65847539792565       0.89008757072375       0.49226750881024
H         3.84079131591213      -0.35314480382033      -0.80325244191674
H         3.86175673920727       1.39047108192687      -1.22162515110282
C         1.93477253346801       2.18214092433364       2.02188279184353
O         2.10834697917651       0.97679791473255       2.36520982890025
O         1.12505342067085       2.69647226342573       1.22380067467755
C         2.98872039554990       3.15514939254096       2.65587842734364
F         3.21285028966614       2.91294748625161       3.97982856035962
F         2.66472083905294       4.47202908766798       2.53913193291874
F         4.20572959630954       2.99232022364580       2.01001914240588
