27
C7H10F2N2O4S2 optimized with ForceField in AMS.
N         0.14329691781987       0.00083201706084      -0.37685923706881
C         1.58839664168557       0.00283992472621      -0.63242197585478
C        -0.52460902483973       1.18846184231375      -0.25224120915484
C        -0.52018706934772      -1.18703520313894      -0.23403793310510
C         2.35498120673224       0.03078529651270       0.68432087799850
C        -1.89470745493614       1.20593256565280       0.01895739340960
C        -1.89040275855731      -1.20514868826180       0.03757932713947
C        -2.57914107634712       0.00028914041675       0.16431605971288
H         1.88412265619087      -0.89967873967281      -1.21217932430683
H         1.87408656733083       0.88708191286671      -1.24433097405657
H         0.00202444730081       2.12996801316752      -0.35497036739189
H         0.00970802418473      -2.12826223563756      -0.32192435594476
H         2.07263631567991       0.92883190330445       1.27350399608971
H         3.44323953588794       0.06770119207863       0.47863080504868
H         2.12979527985498      -0.88144542042198       1.27672077137308
H        -2.41926127300623       2.14729997005908       0.11937993431200
H        -2.41185430169121      -2.14651774223290       0.15273553786796
H        -3.64011702301111       0.00017620376490       0.37755986483634
N         8.04939393767909      -0.20965960838933      -0.94395835591144
S         7.61411655523135       0.84756377074325      -2.11444954053127
S         7.47867113892375      -0.07122799716271       0.58310817483759
F         8.41962573204553       2.29534356612428      -1.87518870338117
F         5.89396961221355      -0.60333612782436       0.62623010558617
O         7.98348543822810       0.28888864529887      -3.45916639434305
O         6.13298372656542       1.09803289280648      -2.05797413698965
O         7.52496398473838       1.36532818764101       1.02323420439962
O         8.30812657424366      -0.91380178559585       1.50961696032856
