30
C8H15BF4N2 optimized with DFTB in AMS.
H         1.47682746578972      -2.05192943585274      -4.28048173545751
H         0.87361460734963      -0.65642439674898      -5.22983057835288
H        -0.26286993877466      -1.68200451060544      -4.30874953226714
C         0.73675329778124      -1.25242761144602      -4.32686910807222
H         2.50683117635937       1.30568587084892      -0.91124936189646
H         2.97058176036900       0.11559267483096      -3.36844618402849
H        -1.02691989520141      -0.57404769315988      -2.23144072367963
N         0.90378209319082      -0.41192269413893      -3.15450067427363
C        -0.00875880066906      -0.23043640197556      -2.20393400786208
N         0.54048937597859       0.51854881667645      -1.24796344542873
C         1.85243261689892       0.75637887857412      -1.56434950996386
C         2.08036528376894       0.17388613157471      -2.76816332365657
C        -0.08729307421501       0.83475577307863       0.02930730247264
H         0.36158927577316       1.75906866835579       0.40425773518102
H        -1.15320734162854       1.00453440927932      -0.15004755431885
C         0.12708240444973      -0.32152901361361       1.01175347129089
H         1.19949820999397      -0.50328529761989       1.11688869328588
H        -0.32045910664217      -1.22696426497265       0.59469757619426
C        -0.49490241937859      -0.00092670029864       2.37176094679410
H        -0.03886201339601       0.90788190724569       2.78106584947424
H        -1.56738542972026       0.18930684664661       2.25012281955572
C        -0.28950928835769      -1.15945252391577       3.34622926820867
H         0.77425953342345      -1.34841997262691       3.49319477849504
H        -0.75225242697758      -2.06763024987307       2.95928748706665
H        -0.73880929189179      -0.92126678164333       4.31057694377391
B         1.37567282593705      -2.83088598553262      -1.16534995214791
F         1.39868296131027      -3.98691721147679      -0.43564246785320
F         0.01343254397949      -2.37159043224538      -1.30427009129988
F         1.88880636576584      -3.00848569741575      -2.45985207267167
F         2.09016337593354      -1.79804134494923      -0.53019428026225
