22
C8H12ClN optimized with ADF in AMS.
N        -0.30828998593503      -0.05454953478844      -0.35753777184042
C         1.11020512389740      -0.29632612821007      -0.70967872516592
C         1.94594539517769      -0.51031690573196       0.54652702499597
C         3.42364848558031      -0.60941165262074       0.18429834190783
C        -0.65577691624187       1.19573580601515       0.04126728525304
C        -1.20663402093468      -1.06774349191579      -0.39098840482417
C        -1.97133053852208       1.44400389170778       0.40780777952077
C        -2.51657833668231      -0.85740273228439      -0.01374051509367
C        -2.91034856336500       0.42014360946453       0.39665673826335
H         1.13616979862679      -1.16152311802106      -1.38975569811428
H         1.46581383371417       0.63123209723498      -1.20895505514473
H         1.59625666028659      -1.40854526072113       1.08865403161173
H         1.79880721632764       0.37207800364031       1.19334688513839
H         3.61948460843018      -1.44231295022188      -0.51092594845250
H         4.03003145166590      -0.76946753840519       1.08784890660946
H         3.74408579296678       0.33440809631419      -0.28452757121828
H         0.17787941862144       1.95632708236722      -0.00247899799216
H        -0.83017779608726      -2.03446200126207      -0.72299042790550
H        -2.23896664630607       2.45897317227315       0.70676669259402
H        -3.22091734689415      -1.68896945821633      -0.04147848972696
H        -3.94051308427770       0.60522027664766       0.70491279414384
Cl        1.93593378925128       2.84342737563408      -0.48179713575980
