64
C18H26F18NP optimized with ADF in AMS.
N         0.54272972772407       0.51126105047758       1.08343360951984
C        -0.62354159363360       0.35144206317001       0.13158763834073
C        -0.01195046789697       0.66007672064015       2.49627642505755
C         1.48744233412401      -0.68102267023732       1.02088034279128
C         1.27293283910532       1.79491272154813       0.71950393700369
C        -1.51339217343404      -0.82790832755665       0.49047320667665
C        -0.90931328163460      -0.49325031918689       2.90587447408710
C        -2.05400116796520      -0.69608834318543       1.91553883704344
C         2.04693334228155      -0.97949528696060      -0.35870038116433
C         2.58973526447977       2.02080686849610       1.44609795008925
C         3.07220734911853      -2.11566045017657      -0.27157140952784
C         3.03519822709124       3.47342549064031       1.28177149988414
C         3.57980289733694      -2.53973062387527      -1.64546936038724
H        -0.20717983617677       0.26657956038210      -0.88114378461065
H        -1.19011377483355       1.29481357303969       0.19374688095954
H        -0.57465525193506       1.60782761964650       2.48804172578332
H         0.84365751955943       0.75014421702868       3.16998768122354
H         0.93264821575089      -1.54476682682595       1.40292340254188
H         2.28180207685542      -0.47481636481512       1.74675584385130
H         0.55976993862256       2.60515891439373       0.94110959732336
H         1.42408782263212       1.77212017269763      -0.37061450380029
H        -0.95872971575204      -1.77404384909702       0.37225137760573
H        -2.33628662810132      -0.85671159886579      -0.24330461392101
H        -1.29080196254646      -0.25324117442324       3.91099616135005
H        -0.31804338178494      -1.41228970242728       3.03073042153861
H        -2.73830987306442       0.17116709661348       1.96096335907885
H        -2.64516627830372      -1.58463725368388       2.18592661180132
H         2.53810520742422      -0.09002000509218      -0.79055859794881
H         1.24217508044870      -1.27952267725086      -1.05324090006336
H         2.50281570170510       1.78804853965119       2.51788679770140
H         3.36368253967691       1.35044663276773       1.04343543982638
H         2.61460596781295      -2.97938852509541       0.24308751329673
H         3.91294496287013      -1.79562194440881       0.36271086944283
H         4.00709139289760       3.62544396678800       1.77165607500192
H         3.14268716231505       3.74839614189144       0.22055769651833
H         2.31335184391776       4.16330925418631       1.74605346639187
H         4.06695671813233      -1.69932948155311      -2.16582561899899
H         2.75715477727216      -2.90291500113636      -2.28268416732734
H         4.31872878279934      -3.34948440229163      -1.55539918808421
P         3.66066599040421      -0.76400357942888       5.05898479591469
F         4.28006075055947       0.74420459043329       4.69846197923029
F         4.93911275153250      -1.09589862722395       6.04898150875611
F         2.31828469107087      -0.49832856296504       4.02745345228359
C         2.69855868303652       0.20856148070704       6.50843139029573
C         4.62101355204554      -1.36440692295777       3.41625533182197
C         2.99283777238664      -2.60160980323370       5.51664824122142
C         1.68458753361019       1.33778085756309       6.11015337519289
C         6.13610720043800      -1.69695519319928       3.51542002161914
C         1.58692380487074      -3.05396651327564       5.02874306744249
F         3.64321548879506       0.83074076068535       7.28872522029479
F         1.94468693837470      -0.58203983406138       7.34953343607945
F         4.55555448621217      -0.34287888612887       2.46865108350820
F         4.01829856657340      -2.44060504412314       2.80008379811239
F         2.98386448074007      -2.77554528431500       6.87860727954125
F         3.87075834980306      -3.55146370749701       5.03914298949667
F         1.36150655276032       2.05361737387873       7.21981467124793
F         0.52332738777431       0.80766393656183       5.62545108570560
F         2.14786557348623       2.21491784475556       5.18578884968539
F         6.83132162113521      -0.63483846821644       3.97808916573399
F         6.37645963244745      -2.76168928799389       4.30560131328695
F         6.61488839818191      -1.99557968286124       2.26660904615597
F         1.30589764245951      -4.29959023826141       5.49589806082338
F         1.50724724335990      -3.11230587045640       3.66816157577694
F         0.61294850435062      -2.21874698209922       5.46536762927624
