32
C8H15F6N2P optimized with ForceField in AMS.
N        -0.67957489777699      -0.89314691512708       0.41447891926645
N         1.51206956566352      -0.53364791335903       0.32058348931209
C        -2.08333309180544      -0.77924833313783       0.80648707921574
C        -2.89484281027588      -0.03111017084292      -0.25881813789645
C         0.36787373317761      -0.25815291435892       0.97523459609880
C        -0.18041975189220      -1.59962611066589      -0.62005052940655
C         2.83098168362541       0.03155261551452       0.59034626870044
C         1.17954592388440      -1.37392517716355      -0.68022014708191
C        -2.39305327875545       1.39794354625358      -0.46512828694050
C         3.15961864725751       1.11435935857225      -0.43108943141686
H        -2.16740596143443      -0.24271054689835       1.77761664581709
H        -2.50687166080112      -1.79689631914947       0.94821415645542
H        -2.84852210444373      -0.58110158977754      -1.22388246292941
H        -3.95774739643026       0.00506293609637       0.06291456347757
H         0.29296152458669       0.41996481689580       1.81645919865286
H        -0.76284683875166      -2.21516981858510      -1.29394345551214
H         2.85173645307587       0.47788819557144       1.60841408499686
H         3.59785064938597      -0.77193699771290       0.55026116461554
H         1.86872178219971      -1.77851774413748      -1.41049670509119
H        -1.36408471589012       1.39279483839648      -0.88212465919752
H        -2.39596224949377       1.95275994794872       0.49723457420636
H        -3.05731530056411       1.92482519556459      -1.18170241641313
H         3.19166032738088       0.68255986029271      -1.45369832752568
H         4.14792269191417       1.56233624148279      -0.19721137028816
H         2.38763623943627       1.91247336179354      -0.40043386485734
P         1.34817960015067       5.20625265507922       1.88837624704496
F         1.31980782370214       3.54510638924576       1.45234432327390
F         0.53826179163798       5.62699561207699       0.43283037846810
F        -0.15276136534855       4.96600297023064       2.68888072395210
F         1.30504284748989       6.84417604180550       2.40530048586114
F         2.23980183057654       4.80556437938087       3.30114993606426
F         2.83245067881848       5.45174979271428       1.05861014707715
