31
C9H16F3NO2 optimized with ADF in AMS.
N         0.33745446107116       0.36927203959014      -0.06372526024452
C         0.16588997383133      -1.01355526427027      -0.66633379733914
C        -0.90367784470037       0.51966652716123       0.78760938484766
C        -1.31952265055482      -1.08583254757015      -1.01330092840566
C        -2.03121007961822      -0.10968986854103      -0.03538848350722
C         1.58082131969111       0.46397719540102       0.79367644765514
C         0.35659721487389       1.41149644996624      -1.14563684277351
C         2.87541802807655       0.23226218741591       0.04387899573666
H         0.42460503659641      -1.72051603332709       0.13848944615336
H         0.87153969098402      -1.12779743620610      -1.52079613191959
H        -1.04377538267231       1.58042941642993       1.03747147044548
H        -0.71633628139969      -0.04837196668020       1.71159076407179
H        -1.68328945668346      -2.11772835657740      -0.91023597182937
H        -1.48690398981351      -0.78977312502164      -2.05940214553070
H        -2.60154189709707       0.65699147473902      -0.57992336374355
H        -2.73855047752669      -0.62453332782480       0.63059719697579
H         1.54891077582222       1.46416596669217       1.25670622544015
H         1.43915443635580      -0.28573658318042       1.58839343688251
H         1.19279976085141       1.20770019555935      -1.85329140501108
H        -0.60022265022173       1.37219696239847      -1.68019872715752
H         0.47259048741824       2.39301316020743      -0.66523606034831
H         3.69545748133087       0.25264460369045       0.77833890894966
H         2.88462756856544      -0.73952325926301      -0.46993912165556
H         3.06484315882149       0.99767717353842      -0.72064267066071
C         2.63547336392667      -0.24711451254689      -3.43685969851586
O         2.18306530292690      -1.26875743980093      -2.85810380396870
O         2.55788606479065       0.96811419077736      -3.13110541303886
C         3.45591278285314      -0.56221155743670      -4.73281170771098
F         3.61186976919974       0.51836414812659      -5.54986553626344
F         2.87619954382292      -1.54726964842156      -5.48410957205937
F         4.71807867177791      -0.99931545382556      -4.40404485957456
