40
C12H25NO2 optimized with ForceField in AMS.
N        -0.52411897729183       0.01388251961208      -0.00000731230850
C        -1.45364899025192      -0.56972789173630      -1.01616750856669
C        -1.41441776218124       0.63967954429667       1.02572924847567
C        -2.85632966560083      -0.07397637579996      -0.72110576637886
C        -2.83829839008106       0.19199489394159       0.75753978525326
C         0.33176960404187       1.06164485760280      -0.64740261995498
C         0.28805224788061      -1.07258866399022       0.63951425865340
C         1.36409537727411       1.71891368072578       0.30062503468992
C         1.27320498306318      -1.78237205025998      -0.32009663836884
C         2.07124491878501       2.88594186869669      -0.38187002726997
C         1.94799249754533      -2.96734169337730       0.36374844879522
H        -1.17617320139086      -0.31659364641216      -2.06485063232736
H        -1.49081203872355      -1.68228897373794      -0.96509292269514
H        -1.12871855853285       0.38582184281441       2.07202035845884
H        -1.41137024487258       1.75249013190091       0.96472594348860
H        -3.04743128694321       0.87196031655849      -1.27464871801748
H        -3.62794937193796      -0.82838395156937      -0.99010174737207
H        -3.05067909786332      -0.74733284615305       1.31465479218433
H        -3.57888292603129       0.97184704437931       1.04056361947048
H         0.87808960635578       0.63847352964916      -1.51892340029018
H        -0.31788617370270       1.86190261021460      -1.07264343616726
H         0.86654317042905      -0.67357654507441       1.50170845763565
H        -0.39388435731097      -1.83922003054938       1.07589267305685
H         0.87275678913732       2.09626474170353       1.22115827845357
H         2.14073165648941       0.98471559223949       0.59875319791915
H         2.06973082203689      -1.08304599366153      -0.64445431994145
H         0.74966548580976      -2.15182329906446      -1.22566487662150
H         2.62213782257797       2.53082061690882      -1.27871829755523
H         1.33661708916350       3.66208430489133      -0.68436872992389
H         2.79792562939569       3.34295435886709       0.32253671719725
H         2.53806129191743      -2.62166721710538       1.23920103156822
H         1.18965634716933      -3.70631106836801       0.69868131245184
H         2.63427420982378      -3.46652379837057      -0.35210120583215
C         6.97983957960525      -1.74994039026479      -1.33287129292428
C         5.66091174328300      -1.98479098250834      -0.66779817442760
O         4.78712114342957      -1.13554785766192      -0.73316380222922
O         5.45485043226078      -3.02172077494536      -0.05780901186848
H         6.82986857360137      -1.62636471335377      -2.42600237952035
H         7.44528935394326      -0.82932946358194      -0.92247759230727
H         7.66557947329690      -2.60668965475660      -1.15875314648353
