44
C12H26BF4N optimized with DFTB in AMS.
N         1.20228312417035      -0.37844168982688      -0.23138757237182
C         2.08297924703363      -0.12150891895633      -1.41409367720192
C         2.03274414941221      -1.31728197594164       0.59680769901892
C         0.95501008905398       0.88937657340127       0.53924900331648
C        -0.07374062987007      -1.03483150192671      -0.65668080587375
C         3.49748400293977      -0.01663294100706      -0.84379489621335
C         3.45580319687112      -0.78672846051959       0.48575860617046
C         0.10560134017596       1.92902409994276      -0.18371100155050
C        -1.02050652957520      -1.33134649176325       0.50584262653530
C        -0.00419564063798       3.17463504606164       0.70600489030374
C        -2.18417190369491      -2.20165081166484       0.01996159573261
C        -0.86952792080776       4.24764151565193       0.04982033020640
C        -3.14864688534589      -2.50313575559018       1.16524969918041
H         1.75489825305596       0.77453080497927      -1.93960993105985
H         1.99422940539995      -0.98010156438575      -2.08435863523250
H         1.94450173161895      -2.31098139158375       0.15077235801002
H         1.66653093647407      -1.33690962267807       1.62127219636066
H         0.47582457449117       0.60118412267947       1.47551684924127
H         1.93190117441143       1.30587962176773       0.78539957111712
H        -0.55210758293288      -0.38264480278948      -1.39211900240398
H         0.20421151686612      -1.96672565642146      -1.15822029873623
H         4.21346647352493      -0.45189417382648      -1.54340855523288
H         3.77314446944622       1.02742135975330      -0.68278705451162
H         3.67736102370149      -0.13075055207685       1.32978374776664
H         4.16771806641553      -1.61322197688100       0.49613325286361
H         0.55004491556244       2.21011059590556      -1.14374022085161
H        -0.89855421465906       1.54176517236038      -0.37794041012143
H        -0.48577262577110      -1.84612090331511       1.30656952856729
H        -1.41452556519632      -0.40132449879752       0.92100407501747
H         0.99688543616167       3.57505939728518       0.89403534495981
H        -0.43853175672972       2.89171728795066       1.66946795743049
H        -2.71841049248696      -1.68418402012910      -0.78469034861366
H        -1.79374658802559      -3.14085262030472      -0.38695105747470
H        -1.87790284065761       3.87124705305431      -0.12759184959223
H        -0.44079109571217       4.55656759920665      -0.90470546376221
H        -0.93389198095555       5.11955710208509       0.70029738181939
H        -3.56316865918048      -1.57840817068612       1.56764088619995
H        -2.63252679359017      -3.03017151828650       1.96786014886618
H        -3.96794555357156      -3.12655506319427       0.80749265638266
B         1.55303821799454      -0.42463032544684       3.69472947487224
F         1.41386430149457      -0.01634971424626       4.98802817602318
F         2.27083929293009       0.53816878540877       2.92329566460379
F         0.27651793101954      -0.56865225099462       3.05716909998544
F         2.21891121757530      -1.64765493945363       3.57332136755268
