38
C10H20F3NO3S optimized with DFTB in AMS.
N         0.75377059298002      -0.15397227979819      -0.20504817833273
C         0.01052694509808       0.68873476170094      -1.19535327836084
C        -0.15335351701533      -1.24508454728400       0.27931865303910
C        -1.27353682754800       1.27415577798378      -0.62226347265712
C        -1.48534514813254      -0.74124720565031       0.82750274409313
C         1.26118410782463       0.65070034447651       0.96973971384856
C         1.92932545401129      -0.77387066080396      -0.94337935473747
C        -2.20758628437652       0.15003704001912      -0.18016347802006
C         1.84511751690291       2.00846208531077       0.60956907632382
C         2.55255734943644      -1.98242615232926      -0.26676830504375
H        -0.23287381315579       0.04297350266392      -2.04381704444092
H         0.68666965651425       1.47225967162159      -1.53942003200821
H         0.38143817770895      -1.79293807632306       1.05663991146188
H        -0.33020994989113      -1.91004128651865      -0.57062290850064
H        -1.74749763280735       1.86956011710309      -1.40668177875354
H        -1.05791838040371       1.93734578176389       0.21868635480786
H        -1.33523984304742      -0.19711360627722       1.76361319491593
H        -2.09492852700712      -1.62034170450318       1.05256034345790
H         0.43406803804972       0.78084661234563       1.66914890029617
H         2.03015006875698       0.03990648339270       1.44521810881515
H         1.56522912276883      -1.05685116504773      -1.93407778846346
H         2.67706113357491       0.01277204513427      -1.05052887537415
H        -3.10711779249998       0.56895583133985       0.27640266598355
H        -2.50935569049233      -0.44167629949721      -1.05038664024265
H         2.41103165391010       2.34997821086458       1.47572165280104
H         2.53906616699513       1.94301104915771      -0.22440839061746
H         1.07149054110759       2.74224424837603       0.38593602267412
H         3.46306361917541      -2.21838530210805      -0.81736344192220
H         2.84511384779123      -1.77023890097323       0.75905051401918
H         1.89635657712793      -2.85163128021585      -0.29277586160924
S         5.43512865789619      -0.12652920655616       0.50652458056176
O         5.43279365662146      -1.56929044943166       0.38018843332097
O         6.49186341427265       0.44604646785530       1.29492423306761
O         4.10349294950135       0.43725035033563       0.75372637845735
C         5.74110028928669       0.46093788127302      -1.23132414923766
F         4.74338538400293       0.01251553177516      -2.02109411067058
F         6.88293810403205       0.02432979935275      -1.74105100496991
F         5.72696396332949       1.78992134337145      -1.30705147328250
