31
C11H17NO2 optimized with ForceField in AMS.
N         1.10596651721298      -0.00505362191006       0.49659301218990
C        -1.26803600572057       0.00690985560341      -0.14600669483824
C        -0.26769510402161      -0.00984329628039       1.01369702161824
C        -2.71149192870911       0.00900791079688       0.36776902192999
C        -3.70692306209552       0.02098395661230      -0.78870762144380
C         1.74069080642232       1.18533760380342       0.26704932785517
C         1.73539255500211      -1.18984429731764       0.22748198597062
C         3.04147189688501       1.20880890037633      -0.24139601261393
C         3.03632849183501      -1.20192592789798      -0.28140468964151
C         3.69063323072379       0.00632453821330      -0.51634302403221
H        -1.10216557218435      -0.89007234015151      -0.78246550325519
H        -1.09378582952143       0.91520470961805      -0.76387014064757
H        -0.43771304283304      -0.91007142985265       1.64622387455353
H        -0.43328031034319       0.87635990658596       1.66504149707274
H        -2.89037815451671      -0.89712119295976       0.98682740492236
H        -2.88341866635297       0.90788600554049       0.99899395723947
H        -4.74217313764548       0.01936444707374      -0.38752193668489
H        -3.56731581760573       0.93223613445041      -1.40869071454054
H        -3.57094236803067      -0.87971253986559      -1.42481029706887
H         1.24065069056090       2.12460530125307       0.47239190660838
H         1.23130484529922      -2.13319482232628       0.40167324414199
H         3.54056230496727       2.15225798851185      -0.42144627389022
H         3.53169818712352      -2.14087339796124      -0.49258068466920
H         4.69815369708156       0.01083656322245      -0.91131509639105
C        -2.63167548847479       2.60206680077378       3.72954634991344
C        -2.29136640651545       3.99422567001244       3.29996876295042
O        -1.23586082618711       4.49817075047755       3.64741930433883
O        -3.06616068336409       4.63054567425350       2.60363931842537
H        -1.85784456663732       1.89835677635783       3.36023116905190
H        -2.66767919826432       2.55214202190924       4.83797958080730
H        -3.61910087489024       2.29543951707712       3.32271683532757
