60
C16H34F2N2O4S2 optimized with ADF in AMS.
N         0.99196413685369       1.18049803714953      -0.44684535935871
C         0.55699302951461       2.21264738927147      -1.47646170047106
C         2.09570368195760       1.89287222353046       0.35559532782046
C        -0.14195566062374       0.78853956168305       0.46792917742484
C         1.56258007124175      -0.02219281372054      -1.19104395675792
C         1.83741555709675       2.94732041019055      -1.82919239233490
C         2.51545120248740       3.12178478754531      -0.46275025848406
C        -1.29000808451372       0.06026077681137      -0.20793680853719
C         2.04909820655646      -1.16580866745838      -0.32403820864661
C        -2.43860742617117      -0.16747615182617       0.77839349742536
C         2.53928303184939      -2.29992808132821      -1.23559478989374
C        -3.62095792340340      -0.89708687686659       0.14425874143841
C         3.32300585334053      -3.37193302747772      -0.47467821038973
C        -4.77993742267533      -1.11885432216724       1.11468485166005
C         4.73160642042366      -2.92429844618713      -0.08496356423310
C        -5.95684417479583      -1.84596271430544       0.47011636102508
C         5.49646159233099      -3.99646271128190       0.68449541291329
H         0.06206471906191       1.70230442445228      -2.31232033392715
H        -0.15898950615628       2.87968709049547      -0.97019880230100
H         1.67253816485300       2.15074089029522       1.33530638603665
H         2.92663125132131       1.19053698936281       0.47862791628861
H         0.29769246147028       0.17186111206994       1.26608710123824
H        -0.49519765832219       1.72779105309586       0.92393075595312
H         0.76912772662173      -0.35643551284952      -1.87712902151827
H         2.40251669883837       0.35677827143583      -1.79046260399121
H         2.46726255818683       2.34861926011444      -2.50496226841328
H         1.62472706365906       3.90508347730426      -2.32484530249540
H         2.15975030027344       4.04259395684058       0.02578392871938
H         3.60942229831798       3.17321856082024      -0.54849920146555
H        -1.66368233421235       0.64496775789085      -1.06660262737770
H        -0.95117222629984      -0.91426611232187      -0.59734746365704
H         2.88617683193979      -0.82988081100161       0.30662189274022
H         1.25453779653941      -1.55559538112467       0.33622774406801
H        -2.07113134077177      -0.74830415078813       1.64427945724202
H        -2.78099350346448       0.80574845786883       1.17580953676631
H         3.18710692384580      -1.87476064236995      -2.02321064832015
H         1.66862615334289      -2.75125848274326      -1.74557211907397
H        -3.98198708050739      -0.31906987804292      -0.72720179744889
H        -3.28189275086294      -1.87409646919314      -0.24840568670474
H         2.75852320723188      -3.67486219699844       0.42900514325831
H         3.39853811138149      -4.27435895795803      -1.10717581515223
H        -5.11637295803956      -0.14139729936118       1.50700760233553
H        -4.41842760468878      -1.69554552708992       1.98564191868528
H         5.28902793037390      -2.65652774218065      -0.99966085243231
H         4.69543611537737      -1.99969006624779       0.51557889708583
H        -6.35352238728612      -1.27422419350574      -0.38443164939199
H        -6.77800380108686      -1.99422568700665       1.18643198963356
H        -5.65140239486758      -2.83686019137403       0.09686468568594
H         5.57309089873869      -4.92451060922189       0.09450455725855
H         6.51623583975667      -3.65819254427081       0.91796772919008
H         4.99027240239782      -4.24377455948858       1.63227602054455
N         6.56009704802685       0.07567151626815      -2.20096853190406
S         7.85574637199359       0.01145286150370      -1.21346711066886
S         5.27532938221811       0.88052571253835      -1.77178630022934
F         7.35414319287229      -1.09138867857858      -0.08055281301224
F         5.67819476161815       2.48597049190342      -1.93977970256278
O         8.90726027971825      -0.66945810125039      -1.93367640708543
O         8.10616136408311       1.21717957046189      -0.44977065617759
O         4.86498287279215       0.79563447191557      -0.36880210228984
O         4.24172568584436       0.70025264486764      -2.79142863492961
