55
C17H32F3NO2 optimized with ADF in AMS.
N        -1.09290236348647       0.95710149588412      -0.13349826538959
C        -1.55290689752557       2.07510761042900       0.78548265689965
C        -2.08860948907747       0.79594861685893      -1.26186026038431
C         0.23400075095859       1.35625824618500      -0.76365351379273
C        -0.95481125323127      -0.32198451182168       0.68345193852905
C        -2.97370218105776       1.88302132116625       1.28962375014253
C        -3.50685715631023       0.55572861964218      -0.77338498738962
C        -3.96464926894584       1.69060002171650       0.14314213851865
C         1.38039162305705       1.57143568872786       0.20318841472973
C        -0.39832910931113      -1.51642332246060      -0.06726766810028
C         2.67256546764032       1.86310040516513      -0.56188227663251
C        -0.22026734541720      -2.67767801162897       0.91759957207925
C         3.86117103149489       2.01768948599079       0.38733228245119
C         0.38225182513638      -3.91390057767928       0.25543026911818
C         5.16060793333325       2.34739813723291      -0.34082394993164
C         0.61391870559726      -5.04774522792772       1.25117506102545
H        -1.47195345537703       3.00165523311477       0.19244354788797
H        -0.84255606933925       2.11305635550520       1.61957925785413
H        -1.72120316724577      -0.02468580862149      -1.89316568079803
H        -2.04037740465951       1.72987364583407      -1.84472174005544
H         0.01916999651712       2.27516147413048      -1.33535480144665
H         0.47438968715503       0.56277631470126      -1.48710741665765
H        -1.95494902637464      -0.54983537102369       1.07047342059628
H        -0.29870136827308      -0.08505495300376       1.54932717289160
H        -3.22321197962247       2.77842334163168       1.88200023832188
H        -3.01147446607264       1.03891387394967       1.99553008038516
H        -3.57523267176838      -0.41449905878433      -0.25504966022634
H        -4.15390353643123       0.48006915456117      -1.66326609731952
H        -4.03073369905470       2.62331785986980      -0.44655985435166
H        -4.97319447278898       1.48609740112697       0.53475238707348
H         1.16641208583834       2.41892958125537       0.87466652103751
H         1.52192924345759       0.70011175878834       0.86314712959596
H        -1.05503301974147      -1.83274465508977      -0.89939842389340
H         0.59157818220896      -1.28258962221994      -0.49371120562049
H         2.56017559520740       2.78296008230731      -1.16836929006049
H         2.88054431739372       1.04103427601366      -1.27344656214728
H         0.42708901603257      -2.33107560812292       1.74317229152097
H        -1.19874413722579      -2.93740970064879       1.36437161563636
H         3.97231930733463       1.08598158155540       0.96933653405199
H         3.63159908718880       2.80946010236346       1.12244007761479
H         1.34380024514203      -3.63405315254082      -0.21370525635143
H        -0.27836228034184      -4.25848945605351      -0.56283449433027
H         6.00166194441873       2.43658270277311       0.36340072280744
H         5.41740605205258       1.56241541871290      -1.07062225281022
H         5.07755238643588       3.30070826538226      -0.88828655156879
H         1.05465717490018      -5.93121792980286       0.76486179326538
H         1.29522007264592      -4.72410962144979       2.05377032810424
H        -0.33337680775697      -5.35616351504282       1.72222384448420
C         1.10111300194237       0.09121050048960       3.98325387524244
O         1.10683263107079      -0.21118605217759       2.75238883437284
O         1.76822454152107      -0.31678985853463       4.93855536320799
C         0.02937957206851       1.20135072175153       4.31882719608278
F        -1.25460132970300       0.80760969918097       3.95992725473019
F         0.25825239547429       2.37332590010216       3.60282228616219
F        -0.03359324248456       1.56196576683518       5.62158938853687
