54
C16H36ClN optimized with ADF in AMS.
N        -0.00199109919447       0.04308596468392      -0.08207109903250
C         0.80414598875693      -1.01811413489910       0.65926406677623
C        -0.87565637048322       0.77365726357172       0.93976128794834
C        -0.85571343631343      -0.64864907453047      -1.12804300261482
C         0.88916532850385       1.05964804700596      -0.76106569256793
C         1.82689326995701      -0.47884344226244       1.64146465479800
C        -1.99764149687443       1.61348416289379       0.36067324640040
C        -1.82223748953216      -1.68832658889638      -0.59001112343216
C         1.90691600239777       0.51239444147407      -1.74625786949759
C         2.31607363156027      -1.62839097156953       2.52833025008970
C        -2.66289934751722       2.40784058913789       1.48928636288349
C        -2.82693098245403      -2.08487294159987      -1.67140021815878
C         2.78303241547293       1.64581134774864      -2.28456072052464
C         3.34933509243333      -1.16426475219050       3.54935470034209
C        -3.84628172448898       3.23103915014572       0.99088957185452
C        -3.77409887654996      -3.17784645109720      -1.18234891985474
C         3.82073057210203       1.14182922721004      -3.28268384813392
H         1.27650729068243      -1.64810537955313      -0.11027557876887
H         0.04927793842220      -1.59903462442468       1.23753146344968
H        -0.18351291818292       1.41394609052865       1.50494469858365
H        -1.25733503395220      -0.01128058712993       1.63903738379775
H        -0.15345016393568      -1.11247082725513      -1.83552270653301
H        -1.39094852480555       0.15180511400765      -1.66320883253152
H         1.40384157858625       1.59668119808428       0.04943084786540
H         0.21777231980061       1.77289210190130      -1.26196695110377
H         1.35702639633232       0.26776546370954       2.30289191975049
H         2.68494891158975       0.00275270227099       1.13583783352143
H        -2.76076982481524       0.97007922475219      -0.10919636713959
H        -1.64126743251143       2.32299800246554      -0.40978730667136
H        -2.34531460937367      -1.33312310467120       0.31319739701221
H        -1.27492143806295      -2.58085714510687      -0.24664689408592
H         1.40895868863708       0.01648281757659      -2.59619522797533
H         2.55029740033561      -0.23831574093210      -1.25796625743711
H         2.74364142703994      -2.42884335588889       1.89652964211949
H         1.43115409360465      -2.05044571780449       3.03850276429136
H        -1.91465837766572       3.07396725260042       1.95617027165644
H        -2.98960172010903       1.70322214878060       2.27397602513601
H        -2.29333143613076      -2.43150505593678      -2.57690350285751
H        -3.41042413905346      -1.19552746650893      -1.97589918255635
H         3.29012926796795       2.14785685395516      -1.44066926710880
H         2.14367489599966       2.40909972727800      -2.76435565434344
H         2.92286755621763      -0.39117704721972       4.20898179901829
H         4.24115019175929      -0.73863080022226       3.05934465303854
H         3.67848691753413      -2.00015431776264       4.18444281151838
H        -4.62164489600239       2.58062566464212       0.55551153119866
H        -3.53253958802898       3.94808152425875       0.21423592851782
H        -4.30699493393970       3.80093901280858       1.81121332574687
H        -4.31708724719638      -2.84778079229898      -0.28340335947670
H        -3.21441455682939      -4.08542810101400      -0.90787911848841
H        -4.50837889117958      -3.44523276715982      -1.95689258233893
H         3.33468356784089       0.65954226175297      -4.14591952473075
H         4.48779739326981       0.40051814528593      -2.81493008134755
H         4.44216175649851       1.96658092142641      -3.66099317036308
Cl       -1.51004089841988      -1.84720334082239       2.84433978585982
