49
C15H32ClN optimized with ADF in AMS.
N        -1.03708524336081       0.77029247344243      -0.16920581616133
C        -1.47618581656572       1.78505805749272       0.88309077862820
C        -2.08139780228243       0.68588789165798      -1.26142089707578
C         0.24413550783862       1.26214086942205      -0.81898461203309
C        -0.82591331568531      -0.57538895481028       0.51177741780966
C        -2.86516678493722       1.49481271548821       1.42139921811357
C        -3.47668511570646       0.37742322046029      -0.74063580150678
C        -3.91192089758277       1.39654303733615       0.31313466997900
C         1.43636743781939       1.40289596535998       0.10635426989554
C        -0.16320164818018      -1.63713478804730      -0.34458296977588
C         2.67503460872773       1.82009342611582      -0.68592890030776
C        -0.11044829416209      -2.95338826207543       0.43678898675594
C         3.89637526049366       1.99397100262649       0.21663607608273
C         0.58518384080707      -4.06953052294622      -0.33914518949648
C         5.14552830719640       2.40188268579926      -0.55874579004670
C         0.63964292285094      -5.38104563449489       0.44067298715904
H        -1.44119419771371       2.76562326599018       0.37837099306053
H        -0.73172466730898       1.71485232671068       1.71176252654960
H        -1.73498004404167      -0.06744444755665      -1.98348179302411
H        -2.07360251439544       1.66975501209844      -1.75909608103512
H        -0.01386034545668       2.23296553781504      -1.27397324764571
H         0.45832150997973       0.56039532374712      -1.64064182942966
H        -1.82026411052774      -0.91366987813487       0.82821678137554
H        -0.25067489565485      -0.34989804714089       1.44513199987218
H        -3.10688627274966       2.30871781920732       2.12480976931302
H        -2.83481059140218       0.57932901498625       2.03537663384674
H        -3.51608706454517      -0.64497499473902      -0.32829653069274
H        -4.15839825403595       0.38627817150007      -1.60788155218205
H        -4.03021761750500       2.38489818127114      -0.17017469313125
H        -4.89579095813356       1.12138202177738       0.72592167249751
H         1.23043036704747       2.13187753602024       0.90493846363544
H         1.63110612160728       0.46607430023388       0.65137419163021
H        -0.70131534688168      -1.80778605507164      -1.29554146909286
H         0.86905936917380      -1.34370218819528      -0.60031360270858
H         2.48327297703777       2.76836506940652      -1.22473123447367
H         2.90101823784072       1.06357851653664      -1.46211402123511
H         0.40961600618679      -2.77785142802600       1.39538746170419
H        -1.13822782790201      -3.27140926735878       0.69297512630789
H         4.07741151295113       1.05027362300120       0.76095129217675
H         3.66704516028154       2.74650567686806       0.99118558680252
H         1.61104153034215      -3.74640363380681      -0.59387364158532
H         0.06186617648523      -4.22869673356725      -1.30059312104305
H         6.01375797839281       2.51092870287101       0.10883482524868
H         5.40079567525171       1.64972432355005      -1.32304679656370
H         4.99485281177752       3.36394569726808      -1.07545760077990
H         1.15264084750219      -6.16865439850462      -0.13192535481552
H         1.17704111028684      -5.24842004783094       1.39298525097193
H        -0.37459022238647      -5.74073472064156       0.67777256361146
Cl        0.48329457552528       0.64938913368775       3.26384871251429
