27
C7H13BF4N2 optimized with DFTB in AMS.
N         1.10001462809333       0.14432964144127      -0.30547513355845
N        -1.05155181526060       0.09961461563619      -0.27847839144627
C         0.03784870605610      -0.63301287933871      -0.48477661986129
C         2.47336369916118      -0.34924921056096      -0.26288196830953
C        -2.40184282929075      -0.45081510450145      -0.20094829050023
C         0.68147958530054       1.40048495984615       0.04923071079121
C        -0.67688624672129       1.37207461726236       0.06602549426654
C         2.92662523661605      -0.45973784327892       1.18869003495230
C        -2.81295165427686      -0.57713055408874       1.26222849451177
H         0.05608121692962      -1.67274720140975      -0.76240294445497
H         2.47580107606145      -1.33593181486624      -0.73194023853294
H         3.10823108389114       0.33564472178457      -0.83274329623008
H        -3.07939229105649       0.20632313226663      -0.75394335649778
H        -2.37462870776266      -1.43744618538014      -0.66888385652665
H         1.37104649707317       2.20107244336572       0.25189526613952
H        -1.39362439653691       2.14339120239169       0.28736536921683
H         2.93095055737829       0.51954718050784       1.66672038499059
H         3.93294897086556      -0.87471507591934       1.21462467834859
H         2.25120078147843      -1.12006691903515       1.73096493349137
H        -2.09236187006290      -1.20196812866843       1.78828483749847
H        -3.79610271543797      -1.04210173380687       1.31587010946588
H        -2.85329282770244       0.40226848080686       1.73800211081941
B         0.10504884584667      -2.94416194828745       1.22655800071260
F        -1.04736274831916      -3.01867043559278       0.40424130137898
F         1.24324240839335      -2.98023027463440       0.38435857741501
F         0.12419746343735      -3.92918611435133       2.16588661135864
F         0.08989624044577      -1.64986071198860       1.82637164396050
