35
C9H17F6N2P optimized with ForceField in AMS.
N         0.99586301066050       0.35450151674686       0.47484385114382
N        -1.00739201923039       0.34487835174888      -0.48740701446061
C         2.24800129989467      -0.10991984719890       1.06759286020580
C        -2.25886398144851      -0.13205667491226      -1.07079856381367
C        -0.00355694451598      -0.41118846530289      -0.00301481020548
C         3.41461133169829       0.06783975790101       0.08995128133058
C        -3.42190853978420       0.04774982667249      -0.08929226800697
C         0.61305377964991       1.63287101899724       0.28479372878547
C        -0.63293872290989       1.62746538576901      -0.30865287957002
C         3.21908930016922      -0.74994650829653      -1.18695569812406
C        -3.21805035141500      -0.76129973395576       1.19174658194126
H         2.16041476826505      -1.18162496170828       1.35171200153983
H         2.45134205459184       0.46601930877930       1.99643063211328
H        -2.16607733405274      -1.20545928712735      -1.34642290751932
H        -2.46922125741584       0.43495974795563      -2.00350970955350
H        -0.00082379335465      -1.49398477798276       0.00236859675244
H         3.52696400560688       1.14187369302580      -0.17166414936642
H         4.35079504213860      -0.26423934223778       0.58829603112296
H        -3.53657544382713       1.12297560711035       0.16648348245947
H        -4.35914112243565      -0.29019237459075      -0.58153856902330
H         1.19385526912772       2.50173038709769       0.55810748146856
H        -1.22053623782760       2.49222254877061      -0.58905497611102
H         2.34739562061092      -0.37011753471255      -1.76140904097165
H         3.05637690512762      -1.82085950671977      -0.94118816541155
H         4.12213778475575      -0.66432703540785      -1.82586086048933
H        -2.34567766065870      -0.37445369800198       1.76049263444536
H        -3.05199607465762      -1.83291908545742       0.95162520485909
H        -4.11900453143679      -0.67524995645486       1.83350016338107
P         3.49747851888682       4.56962005249726       2.07337511008815
F         4.03763154916636       4.84968064869722       3.68004463373445
F         2.04060795535070       3.88608449994956       2.67517586166510
F         2.71108323754358       6.09681376431432       2.03908630233046
F         3.04834049463244       4.35301312953404       0.42940759700210
F         4.97818850823284       5.27382505553269       1.56054524291829
F         4.18681462586096       2.99578664356771       2.06471985853934
