25
C5H9F2N3O4S2 optimized with ForceField in AMS.
N         1.19942632848320       0.00919862789567       0.02432051731634
N        -1.02224216472638      -0.00165228956310       0.04878455552733
C         0.09219860373548      -0.75828236946636       0.03411097124874
C         0.77244381098656       1.28732255792165       0.03248625771476
C        -0.60803246560160       1.28054726343577       0.04713088559383
C         2.58439345729039      -0.44286195449244      -0.00177154281060
C        -2.40274077973144      -0.46644365920184       0.04320380261944
H         0.09718453643760      -1.84139170207302       0.02469722252974
H         1.41499114565984       2.15824007570158       0.02400435779038
H        -1.25952777383690       2.14491149484062       0.05124568120260
H         2.63207546529037      -1.55280986586775      -0.00369826056285
H         3.08434288164013      -0.06050427305990      -0.91642096922256
H         3.11822164107355      -0.06189985501851       0.89402901049119
H        -2.93037139415418      -0.08471762755477       0.94237164491514
H        -2.91333869124419      -0.09261207758271      -0.86748744494505
H        -2.44169704378994      -1.57667485030153       0.04654541124883
N        -7.32421318919823      -0.34097641669567      -2.50649283127209
S        -7.48530410924496      -0.59376646131946      -4.11476206461635
S        -5.85206809845511      -0.33337407269144      -1.79372082140319
F        -7.20112425640863      -2.20876582996705      -4.45132060626202
F        -5.01011852715085       1.02978968150360      -2.27927516497710
O        -8.87914646885932      -0.23282670492907      -4.54368856980187
O        -6.48977932145469       0.24296201543722      -4.86869390923559
O        -5.07891538180534      -1.55516020268889      -2.20478412975968
O        -6.01451856373535      -0.31548404416260      -0.30023463152937
