48
C12H26F2N2O4S2 optimized with ADF in AMS.
N        -0.88834261994166       0.22954382309052      -0.97713831288404
C        -0.83760279516321      -0.89135806462978      -2.00378295694594
C        -2.31668393521678       0.14146661453902      -0.48811051027425
C         0.06349747101350      -0.05631189364159       0.18081801565818
C        -1.64716714249987      -2.03087947339780      -1.38607251053531
C        -2.60214298761261      -1.35565070259591      -0.36521453789933
C        -0.59068164522476       1.55749675749734      -1.63848401206356
C         1.52779603310138       0.13270175534776      -0.15775978648590
C        -0.70429129637255       2.74945828313878      -0.71185990316600
C         2.44631407743064      -0.46631287048455       0.90780403760703
C         3.91206934134493      -0.27270430175146       0.51813848537653
C         4.89169187454565      -0.94436877521134       1.47574733030469
C         6.34232481606254      -0.74532721828978       1.04160758773258
H         0.20664519567180      -1.11075778420519      -2.26056177945457
H        -1.31970444921964      -0.48837863744241      -2.90699935811483
H        -2.93564469165883       0.60734391734861      -1.27019752178773
H        -2.42343900967224       0.70796821729068       0.44481414759689
H        -0.13419629704153      -1.09599338380264       0.48072344064851
H        -0.25550620362063       0.59753180931631       1.00753603126162
H        -0.99436541414330      -2.76585912440422      -0.89304076281965
H        -2.19512820713244      -2.56909793168508      -2.17248288137217
H        -3.66105838319123      -1.55883129278472      -0.57905384145829
H        -2.40639693052848      -1.70879850860075       0.65761237000706
H         0.41710321128665       1.48218789592975      -2.06372409319907
H        -1.29580992921568       1.63386516586730      -2.47979143355911
H         1.76701163503715      -0.34054948909924      -1.12151475221234
H         1.76524677777225       1.20172614793942      -0.27775378352692
H        -0.47324483445341       3.64919687285898      -1.30146109049315
H        -1.71528880090243       2.87361266757618      -0.29696728367975
H         0.02284773310604       2.70888886873977       0.11151371473470
H         2.23426753123832      -1.54786036998972       1.01073887571180
H         2.25236419327158      -0.00844351203908       1.89667594377669
H         4.13378276192469       0.80919834498202       0.46263538495991
H         4.07012871313012      -0.65908802389372      -0.50410923958741
H         4.74566261819685      -0.54654694800352       2.49733140805197
H         4.66467872056494      -2.02563588012382       1.52558031326411
H         6.60018391541492       0.32581573794354       1.02048214323572
H         7.04226780496637      -1.25123683921349       1.72327362429858
H         6.50159607909313      -1.13963233260240       0.02572874232217
N         3.47768882016615       0.60208019165926      -4.93079493078484
S         2.17838083218670       0.50073579368095      -4.04815986491874
S         4.86888643075617      -0.03502668532122      -4.36841474083588
F         2.40688816881000       1.68716251151211      -2.85478774554536
F         4.61590265062877      -1.65181040601551      -4.60438233602577
O         1.01877156469801       1.00627251718735      -4.76386284080408
O         2.02095309493338      -0.71324750159541      -3.24039946210134
O         5.06569535697217       0.08385687399837      -2.93432591627055
O         5.91243287638648       0.31368666858034      -5.30396893614286
