51
C13H24F6N2O4S2 optimized with DFTB in AMS.
N         0.19282394962678       1.29868132802423       0.25186524794944
C        -0.35313451396583       2.61742974526978       0.72554575462925
C        -0.87730683678908       0.60423842408885      -0.53951259951248
C         0.63460448828894       0.47097942409300       1.43058588936223
C         1.33960860669653       1.56139315917343      -0.69210142881659
C        -1.62554119392872       2.47152561394007       1.54599906854018
C        -2.16956968768918       0.40323237337505       0.24537706859646
C        -2.70944226936425       1.73718024415992       0.76045910627762
C         1.37353012460966      -0.81855459550421       1.07880638011203
C         2.50344521528476       2.34665287047963      -0.08980783072709
C         1.48042137294964      -1.68887946429557       2.33189358148264
C         3.69433953438494       2.31497462744995      -1.04563911998121
H         0.41471825484506       3.10541437666775       1.32219251234056
H        -0.54601820002446       3.21838899882677      -0.16759466936112
H        -1.07432060877212       1.22688380403633      -1.41681733624800
H        -0.47917487839513      -0.35417482946783      -0.87777920197547
H         1.27088054054204       1.10614307755256       2.04797647325359
H        -0.25862470353243       0.23360227735353       2.00896546410324
H         1.68098379328770       0.58838382173839      -1.05366620756578
H         0.92470523762937       2.11130174592049      -1.54158144210504
H        -1.41620304307995       1.95530566570367       2.48599135194227
H        -1.96562938162241       3.48016311968424       1.79425155715798
H        -2.89411686192819      -0.05493957340822      -0.43319068208738
H        -2.01300204177308      -0.28928975764536       1.07617753106179
H        -3.57822901081957       1.55998883442718       1.39821262769186
H        -3.02871948409255       2.35218336137366      -0.08745339698637
H         0.84675590243626      -1.37724518831729       0.29968426113407
H         2.37908723712297      -0.59095661351408       0.71689475596564
H         2.20927403025250       3.38338379949884       0.08359993635246
H         2.80718682251748       1.91893183977368       0.86571345717287
H         2.05554777952527      -2.58584676722025       2.10544612353725
H         0.48953133568812      -1.98555090865277       2.67761345007461
H         1.98216730869953      -1.14510686876610       3.13086690454523
H         4.51106916929691       2.89133019603528      -0.61314721273142
H         3.42993848023812       2.75036626593704      -2.01014001558608
H         4.03559996172158       1.29121099055309      -1.20266953834172
N         3.78006137079422       3.78075130929428       2.72087328901702
S         4.65261608499266       2.86776914840659       3.72260058455515
S         2.23008962295964       3.93887317046756       3.05211573204739
C         4.68287383016622       1.19653332833166       2.87784524565306
C         2.01917222112221       4.99629128136387       4.59521064945000
O         6.01855114722496       3.29662332550908       3.63218919669086
O         4.07023471737050       2.63090342173330       5.01636523442545
O         1.50124860387415       2.71012061937023       3.35334576514917
O         1.66696511507292       4.74083483459382       1.98156809590215
F         5.46855691403363       0.35062887937391       3.51771455357174
F         5.12438169838414       1.32733100890071       1.62780069734253
F         3.45963859935481       0.65931969231590       2.80819621446152
F         1.02870825654819       5.85153637912119       4.38102754618747
F         3.12352449032793       5.67349375663263       4.84335806708919
F         1.71366640270657       4.24766234414048       5.63474652489976
