34
C10H22ClN optimized with DFTB in AMS.
N        -1.32128113011302       0.31535272466543       0.00604813176432
C        -1.69017032241306      -1.02811900679296      -0.53187280824550
C        -2.34921420595820       0.56834282156750       1.06824645183584
C         0.04443330775273       0.33863667802056       0.62754337754054
C        -3.21955470135505      -1.05902669554113      -0.51960548616144
C        -3.64760343136967       0.00852200614191       0.50231944167399
C        -1.43436621749125       1.35615629814701      -1.05276512169141
C         1.17716325373612       0.08232462825893      -0.36018710109182
C         2.50028200503087      -0.02094352544455       0.40753437903203
C         3.67602517567478      -0.24648980480321      -0.54767618261343
C         4.99608643639486      -0.34951114351998       0.21428822884432
H        -1.27540026480527      -1.78286375355877       0.14016267418706
H        -1.26643505582898      -1.15738353800525      -1.52782938164668
H        -2.36235360558022       1.63948513339587       1.28887213911707
H        -2.04265558853303       0.01891888520921       1.96090417188897
H         0.04786240930158      -0.42439377125985       1.41074149914630
H         0.14511183626186       1.33077177858014       1.08546953230527
H        -3.57108310391167      -2.05225741870296      -0.23486620849235
H        -3.61779945946107      -0.82993884525762      -1.51014216338088
H        -4.23463367592164       0.79194506868292       0.01911661651103
H        -4.25273202286896      -0.42222964899669       1.30159007309819
H        -0.76748076180562       1.10846026968378      -1.87500427566319
H        -2.46028519122000       1.38859829904274      -1.41084367804840
H        -1.16098045010965       2.31461237587048      -0.60282229754282
H         1.00354366835664      -0.84414669502707      -0.91740178372451
H         1.24726673692177       0.90383842151068      -1.07799580556282
H         2.44386406875415      -0.84853495809031       1.12293050356583
H         2.66013204329024       0.90172067554381       0.97401130739755
H         3.73001940102887       0.58405981615066      -1.25922239945508
H         3.51087123629659      -1.16668696340800      -1.11898117922399
H         5.18561712475066       0.56697072181075       0.77412786067193
H         5.81820808119012      -0.50701887649823      -0.48393397739965
H         4.96928401037115      -1.18531556247352       0.91480224252046
Cl       -0.82334397476661       3.34229283999772       1.38017921944326
