37
C11H20F3NO2 optimized with DFTB in AMS.
N         0.56112770117172      -0.10370096929764      -0.28191584553225
C        -0.11514188063970       0.72820747633129      -1.33674767570140
C        -0.16729794563010      -1.41705016373183      -0.16351696799730
C        -1.59668102490070       0.94911278405104      -1.06618821309794
C        -1.65986643314072      -1.25721664910476       0.09552550765733
C         0.57615243701261       0.57900252226145       1.05334711017435
C         1.95622635576644      -0.37311136058296      -0.78831069999298
C        -2.31624088248747      -0.39499733138043      -0.97954264451441
C         1.34631497658016       1.89105187521827       1.09577991795625
C         2.84673100896735      -1.15800469389843       0.16048237487299
H        -0.00964174567623       0.17569167782944      -2.27730872777056
H         0.42007639829546       1.67616873222499      -1.41204980443315
H         0.29751918983244      -1.97974504834011       0.64825865617992
H        -0.00092567712813      -1.94525517380872      -1.10738486362289
H        -1.99295302412559       1.52604373258238      -1.90568526691875
H        -1.75442024398038       1.53495921227812      -0.15473231856908
H        -1.84167831538006      -0.83431363509733       1.08929215740933
H        -2.09400482237736      -2.26048976726824       0.07968012736437
H        -0.46102675114342       0.76174042831755       1.33843512636254
H         1.00336148862874      -0.12673414472554       1.76944535530769
H         1.83450070600267      -0.94138527081170      -1.71661192477105
H         2.40827207348318       0.59349828261929      -1.02066247536534
H        -3.37136822500513      -0.24200756998534      -0.74193570713726
H        -2.24238514654642      -0.90140229333256      -1.94629191405886
H         1.26975107137903       2.28507579194799       2.10917265636591
H         2.40041666607422       1.75261417714873       0.86366907180481
H         0.92676428687155       2.62721616963461       0.41259406772279
H         3.79806886726977      -1.31462047059084      -0.34798955045647
H         3.04246492910475      -0.62411283217267       1.08975108868139
H         2.42508700161473      -2.13448289310628       0.39099654577794
C         0.19333104410353      -2.18215756169825      -3.59611203708877
O         1.07730634985393      -2.49408020529804      -2.79122317785518
O        -0.66417139058857      -1.29953319149938      -3.52373334122115
C         0.14353159723517      -3.06900219109962      -4.92578027574861
F        -0.73556675580245      -4.08250142558045      -4.79471621426117
F         1.33128489971159      -3.61782195533104      -5.22106922972874
F        -0.23786467290670      -2.35703637360299      -5.99781955769431
