33
C7H16F2N2O4S2 optimized with ADF in AMS.
N         1.06773592807454      -0.11467777909088      -0.22996032415155
C        -0.21254042720344      -0.91479454483688      -0.30940215467720
C         0.70210607754889       0.99243660099108       0.74281135761926
C        -1.32810411999733       0.13008663846254      -0.33867386479753
C        -0.73830880816618       1.36920376229261       0.38808506784377
C         2.22898602839465      -0.92891165744214       0.31529266144827
C         1.40159675831288       0.47143654321022      -1.57103437572165
C         2.73451737823119      -1.99629269349464      -0.63028753892287
H        -0.25190290714427      -1.52109043114526       0.60783573761968
H        -0.17730528536450      -1.57835685837285      -1.18214308493260
H         1.43471865485903       1.80468698952627       0.66418971043724
H         0.77494709457666       0.54811269076787       1.74639247004557
H        -2.22762007580226      -0.26132013554014       0.15725356586318
H        -1.61070033364951       0.37335418545693      -1.37343829457733
H        -0.76622199825029       2.25822353284632      -0.25745714699964
H        -1.29626856487540       1.61851818463110       1.30120509410313
H         3.01766980480322      -0.19830556059445       0.55890113941027
H         1.85566620537568      -1.36593549000486       1.25504020695673
H         1.46100454880624      -0.34102213373846      -2.30355356403157
H         0.61005610827231       1.17423337558076      -1.85425357994256
H         2.36178734502865       0.99800864712466      -1.50688865800053
H         3.54463809320089      -2.53375957378521      -0.11595191841415
H         1.95730925522605      -2.72621830258018      -0.90442462357826
H         3.18563639794084      -1.56596890363203      -1.53470170439000
N         4.49744367731483       1.44600976602585       0.51691552142736
S         4.06371178225979       2.98998767067014       0.58715527427813
S         5.32406046574490       0.83714697414552      -0.72678190574709
F         2.95260970527611       3.12819693625130      -0.68405721813976
F         6.73536320794714       1.66094681539912      -0.74397226823267
O         3.20927039988705       3.13048344742379       1.75466548421433
O         5.07935741668514       3.96459147444194       0.25999903641327
O         4.72110845896857       1.10251345946316      -2.02646162697393
O         5.67164282231796      -0.52601197895322      -0.36953641454930
