35
C9H20BF4N optimized with DFTB in AMS.
N         0.35774963539124      -0.29541954188846      -0.25697119026860
C        -0.52763447296741       0.47263493818450      -1.19111048626555
C        -0.35863021326493      -1.56005372398503       0.13057362474018
C        -1.90192914155660       0.77295414517429      -0.60175491673322
C        -1.73335492510720      -1.33147894229050       0.73540200755535
C         0.70192415770358       0.48136597982158       0.97662654350867
C         1.59699661398474      -0.66711044514040      -1.04322167662466
C        -2.61606050897530      -0.52069795659027      -0.21035632704979
C         1.45804471466853       1.77839400715492       0.72754378559750
C         2.69992258844721      -1.33322207570782      -0.23814851604545
H        -0.63875335198873      -0.14600840709102      -2.08570540998890
H        -0.01395175500886       1.39496294250144      -1.46914387011462
H         0.27618974301265      -2.11147846313451       0.82399673905053
H        -0.46198326796425      -2.14843710078293      -0.78163946814425
H        -2.47630943178969       1.30178594052344      -1.36711207709831
H        -1.81370270241656       1.43646900477132       0.26323923083050
H        -1.66843319662046      -0.84006594407984       1.71066719740855
H        -2.16414975966232      -2.32487729423129       0.88603039075525
H        -0.23031966978850       0.70120642629153       1.49912802445931
H         1.29395229447673      -0.18364280509617       1.60854502138576
H         1.26544129776573      -1.35839420464100      -1.82155767533239
H         1.96339886662667       0.24896449194879      -1.51433702268359
H        -3.56806028484553      -0.28462720136905       0.27071718802780
H        -2.82380620317082      -1.10747122645544      -1.11030811587406
H         1.67112537212704       2.22696250316656       1.69771687658105
H         2.40350446179617       1.60687631346541       0.21717843069213
H         0.86619184291313       2.48608930549732       0.14929480422116
H         3.47381449204971      -1.62717780758328      -0.94739379112285
H         3.14578650482186      -0.66358312181989       0.49564727116211
H         2.34185264879935      -2.23630726650450       0.25221398054831
B         0.61957900709015      -4.37302740787658      -0.58317253045886
F         1.27277525681888      -3.95176978423971       0.60648729428131
F         0.96925134737995      -5.64637326400643      -0.92618970425761
F         1.00104554738932      -3.44123914544060      -1.60113403071491
F        -0.76632144223548      -4.23146221154634      -0.38409935632782
