60
C16H34F2N2O4S2 optimized with ForceField in AMS.
N        -0.03078424932966       1.98914404044754      -0.00697384552082
C        -0.72742031199693       2.88054155282250      -0.98536601723104
C         0.63332428996535       2.91816026622959       0.95850302592497
C        -1.03138414354906       1.14274063552626       0.72186714364294
C         0.99895011270680       1.16862075088260      -0.72455349646632
C        -0.26252303827921       4.30394475715021      -0.74764142821976
C         0.11046467124543       4.31902257097595       0.70721768688818
C        -1.76322492065022       0.10767574900006      -0.16758534335652
C         1.76819467637136       0.17217650289385       0.17724683287417
C        -2.87187606255665      -0.60164541672043       0.61951123285095
C         2.89012083392679      -0.51717114471040      -0.60903323145293
C        -3.61289131749643      -1.61621748723686      -0.26078449554482
C         3.65169252346086      -1.51723215964203       0.27025980777703
C        -4.68377568625683      -2.36255817167673       0.54313597336317
C         4.73288214960900      -2.24482213744488      -0.53744924283104
C        -5.43347067028211      -3.36512137602622      -0.32956117072023
C         5.50151006924073      -3.23664042894256       0.33094625373501
H        -0.54522830544868       2.59780666063328      -2.04735564528596
H        -1.83332930636021       2.87690024416742      -0.84687344702045
H         0.46628988435277       2.63987424011586       2.02351387325198
H         1.73797849422476       2.95679738817077       0.81535450270833
H        -0.54612804217082       0.60039048329832       1.56339766854986
H        -1.79461207648854       1.80002655968068       1.20028627730266
H         0.53203185108669       0.59773654974408      -1.55759454803686
H         1.73836439519979       1.84532358219671      -1.21323648426794
H         0.63446478643895       4.51663085620684      -1.37061069530897
H        -1.06037095547631       5.04553355393035      -0.97086752183713
H        -0.79398025872554       4.50125598630008       1.32897036551238
H         0.87691762875625       5.09541963930325       0.92117946890543
H        -2.20892466571294       0.60264011977106      -1.05590660673337
H        -1.04838322315175      -0.66341194035431      -0.52326862449756
H         2.20690700220842       0.69613944819567       1.05243469135232
H         1.07977819652046      -0.61339207001863       0.55249586425559
H        -2.42038022923999      -1.12764313957497       1.48996217093467
H        -3.59699162920730       0.15204236493230       0.99879967760188
H         3.59963272020030       0.25037674023778      -0.99008468493060
H         2.44846667409215      -1.05315604807722      -1.47846309152970
H        -4.09397119893855      -1.08150582782896      -1.10982188546360
H        -2.88462329769820      -2.34998553976915      -0.67239322119939
H         4.12543873643369      -0.97355204040850       1.11765798507281
H         2.93790020612741      -2.26391467643704       0.68401494976079
H        -5.41345930923832      -1.63565539354305       0.96219201042742
H        -4.20631598651379      -2.90835520709546       1.38622398626220
H         4.26237002990389      -2.79710966932039      -1.38027825349018
H         5.44927576705203      -1.50535682028799      -0.95742005788367
H        -5.94968828090103      -2.84198758504208      -1.16268560461890
H        -6.19397200331515      -3.89294234281150       0.28356123977459
H        -4.72993365749012      -4.11683558170085      -0.74704202597603
H         4.81195029538528      -4.00156591180443       0.74772947265739
H         6.26950933095334      -3.74968088614468      -0.28545117029165
H         6.01067034165895      -2.70700636571018       1.16424755804551
N         0.71577791763361       5.08646070061304       5.31152966324330
S         0.25414716796385       3.61676001744548       5.86297238439134
S         2.22614452979340       5.34167655115952       4.73582137515932
F         1.10396320296963       3.25330880459771       7.25886490859124
F         2.38555750969812       4.59915065645306       3.24489353428265
O        -1.21742485342526       3.63188358922991       6.16387012244071
O         0.54891559937020       2.56748135277468       4.82852103186833
O         3.24099999794170       4.75890518034658       5.67873080234539
O         2.46344988330762       6.81716791659649       4.58430719576091
