47
C15H29ClN2 optimized with ADF in AMS.
N         2.99924241012594       0.72003748555961      -0.10954733359988
N         2.71264778483453      -1.44042539966382      -0.17530268335346
C         1.71928242693907       2.83924206300763      -0.07517287559186
C         2.96929696535738       2.08894695030837       0.38551725191106
C         1.04679232983414      -2.97478010754674       0.80924262834058
C         2.48204884408715      -2.79446456742210       0.31776800005546
C         0.41878627718207       2.16543886710879       0.35992273856805
C         0.00034282385279      -2.60981253219400      -0.24177755249615
C        -0.83857704028244       2.89933842239200      -0.10087338501138
C        -1.43127455066866      -2.62245816941158       0.28827148587316
C         2.60782006543262      -0.34999684388991       0.62704251822410
C         3.53664210313537       0.27322805114236      -1.30682039469405
C         3.36462634700975      -1.07574271953928      -1.34289919380561
C        -2.12844959447060       2.17437822140229       0.28301301670018
C        -2.45954886796974      -2.16650561873242      -0.74596698812109
C        -3.38198615704627       2.90676988520692      -0.18935057697883
C        -3.88227360517469      -2.14156553611621      -0.19297698816265
H         1.77318920251991       3.86586661168082       0.33053875512741
H         1.73651787760803       2.92809091157351      -1.17737527289518
H         0.89740473408660      -2.36563587288444       1.71935983935893
H         0.93092078227309      -4.02600008709199       1.12676968751924
H         3.88904398951833       2.59094814036348       0.04777726495930
H         3.03214484075458       2.01740778880703       1.48374047775964
H         3.20996888772155      -2.96193106919931       1.13272019772765
H         2.69859158721942      -3.48020133883970      -0.51509733972167
H         0.40720684265757       2.07019847754993       1.46254524161314
H         0.39394436840926       1.13905726499063      -0.04856342434534
H         0.08684590714052      -3.29986521201591      -1.10302360940120
H         0.22349219578759      -1.59974570839104      -0.63083470952541
H        -0.85327138559508       3.92022079635740       0.32509359553639
H        -0.80622414686237       3.02252352497911      -1.20009718200425
H        -1.49258151172968      -1.95722543825136       1.17066588727645
H        -1.69377098840466      -3.63614827540552       0.64572884227160
H         1.94174456881560      -0.28354343447493       1.47446422991296
H         3.99139994079958       0.94877440018364      -2.02072365694836
H         3.64514480942983      -1.80460594261597      -2.09243234486127
H        -2.11046288158342       1.15604466740669      -0.14651626792991
H        -2.16210013486752       2.04825640434658       1.38105818154123
H        -2.41198883063741      -2.83038175665469      -1.62921138169977
H        -2.18383443811399      -1.15668760272833      -1.10240907930861
H        -3.43503052105361       3.91665637028621       0.24928675084961
H        -3.38211372795612       3.01737332961978      -1.28600032117323
H        -4.29874841414755       2.36836888174856       0.09504514989429
H        -4.60896791176721      -1.81424048527808      -0.95257173070257
H        -3.95502895885958      -1.45183006342630       0.66386475863684
H        -4.18599222724659      -3.14238828765324       0.15545474137732
Cl        4.26914733290494      -0.66367362339448       2.39495612129716
