45
C11H24F2N2O4S2 optimized with DFTB in AMS.
N         0.41214082729656       0.13292393514744      -0.03491235365092
C        -0.52748231990563       1.24332433977868       0.33046488751767
C         0.07664288468058      -0.35516561327314      -1.41661258420595
C         0.31119387805576      -0.97668534899659       0.97666770198106
C         1.81472435522849       0.68288937367381      -0.11058430328135
C        -1.99694304682682       0.85413480661998       0.20222055210948
C        -1.37450055357046      -0.77606625958777      -1.58210593161436
C        -2.31576264888488       0.36665743548109      -1.21064201204410
C         1.33088685010118      -2.10355072109771       0.80826525920264
C         2.40269332241031       1.17024823234198       1.21079263780057
C         1.02791437689043      -3.20972780514199       1.81698467253428
C         3.83494021093560       1.64607363765613       0.96269783158520
H        -0.30476912614111       1.54677682911633       1.35521895071422
H        -0.30623699835118       2.07728774806627      -0.34146851746100
H         0.30731464572026       0.46081366383662      -2.10570136819114
H         0.74138204224780      -1.18945574722091      -1.63352572757023
H         0.41773988044823      -0.51914135572251       1.96348105251424
H        -0.69756923662594      -1.38710178026759       0.90381575644622
H         2.43760431210450      -0.10565496710521      -0.53104178741133
H         1.78851497055880       1.50683417569762      -0.82842996614761
H        -2.25513864120368       0.08449933627460       0.93463853790306
H        -2.58951243823240       1.74330828471114       0.43368036795958
H        -1.50516032105679      -1.04906026756972      -2.63229271576308
H        -1.59584978640182      -1.66102953077513      -0.97969495948791
H        -3.35336988157788       0.02857840056627      -1.25735061351198
H        -2.19269100769464       1.19155307276471      -1.91951160578610
H         1.28885797738861      -2.51594117645659      -0.20182863673431
H         2.34407412131402      -1.73571986180165       0.97644169769793
H         1.80682873916959       1.99236416369493       1.61850840839210
H         2.42035549590621       0.36436985827713       1.94794608525303
H         1.76767393552886      -4.00231789250583       1.71352576409795
H         0.03727764286660      -3.63233424567228       1.64377767742151
H         1.07094735297839      -2.82434246081345       2.83646957993062
H         4.27310697074901       1.99096591732165       1.89852570696389
H         3.84752750833771       2.46631318577743       0.24493945337399
H         4.43982653850719       0.82934786973469       0.57063805369215
N         2.80178463818023      -1.85515146012199      -2.12065037944415
S         4.28063664019540      -1.48347552663895      -1.67144184179130
S         2.43691294052395      -1.63654507055705      -3.66348545159040
F         4.31773543729632       0.14783600198755      -1.82867684875704
F         3.17115085625276      -2.84966511765665      -4.41538425672635
O         4.33573784469388      -1.66447024451345      -0.24999481860778
O         5.35458721185987      -1.94647974761185      -2.47838871044637
O         2.94400810139332      -0.45101156758362      -4.27081988935925
O         1.03783475015283      -1.92394412593438      -3.78791534190736
