58
C16H22F18NP optimized with ADF in AMS.
N         2.61719539577318      -2.10362153196325      -0.88602875800324
C         3.57397811795924      -1.97247642601935      -2.07687448601941
C         2.66904787186124      -3.58288620927668      -0.52698564133452
C         3.06508642121854      -1.27734855482629       0.30389609600352
C         3.71385567088396      -3.38189316826787      -2.68020948666864
C         2.77689528018176      -4.29327582999762      -1.86305990759767
C         1.23082607750776      -1.73729296743473      -1.30217089122017
C         3.11114544687057       0.22043567637754       0.06481869547720
C         3.73407029137969       0.91753751676003       1.27845593042796
C         3.91526827286891       2.41727094681534       1.06234532444404
C         4.58019892385118       3.09673062089164       2.25565714438866
H         4.52881939433848      -1.61119816488361      -1.68239416122708
H         3.15301133287570      -1.22554987863952      -2.76230284148436
H         1.78456509800243      -3.82893077685495       0.07670128122030
H         3.58307681014775      -3.72524430146971       0.06258875058786
H         4.06204659828168      -1.65737973698206       0.55865178378557
H         2.37961862445647      -1.53280521465920       1.12842650163446
H         4.75465231101858      -3.71242877021508      -2.55644044643919
H         3.47030495813878      -3.39353070410103      -3.75196985110664
H         1.79096947263880      -4.40592215422420      -2.34312786888178
H         3.19877885752987      -5.29885626233668      -1.72725094927208
H         1.21555317994669      -0.69140756876012      -1.62785896438765
H         0.92552640487331      -2.38659548868810      -2.13111223271500
H         0.55794220927360      -1.87540248311232      -0.44567964312979
H         3.72791273702139       0.44270021076019      -0.82287983261706
H         2.10458703442219       0.63623274603800      -0.11404249423525
H         4.71482380275792       0.46186792954214       1.49195718159888
H         3.10539882293618       0.74302506449408       2.17149803466032
H         2.93364099148290       2.88503627189731       0.86042852693773
H         4.53212031608124       2.57382563282847       0.15836038859125
H         3.98023689050195       2.96731190956950       3.17082399899131
H         4.70607275578660       4.17579383531463       2.08222505692075
H         5.57585628607921       2.66504597079889       2.44429058892941
P         7.09728119933332      -3.68525111337319       0.46868232606045
F         7.70736676590820      -4.07969659123696      -1.02816812508085
F         5.69328993811759      -3.08172421801187      -0.30414751794850
F         8.42093377921226      -4.24519538880507       1.28452773221278
C         6.32801179712316      -5.51646349822256       0.51498505962458
C         8.04349080980642      -1.95663321331706       0.19868429507812
C         6.16831789481851      -3.14103093013057       2.16854930288756
C         6.97157972133109      -6.60266090372862      -0.40929299463839
C         7.46269280169184      -0.94088181840243      -0.82703845606853
C         6.84137178262139      -3.27705092818229       3.56725828119277
F         4.97998771553097      -5.54613706182366       0.15912688282477
F         6.40908198876560      -6.03523901107007       1.78206802185652
F         9.30683689602689      -2.23934947514840      -0.26541744411529
F         8.21779126576518      -1.23124799395833       1.35606837153456
F         4.97157791957443      -3.83501417713749       2.27367879659888
F         5.79683382606919      -1.80625309222973       2.08432041941053
F         6.45556420048718      -7.82242802979141      -0.07291119966540
F         8.30838290794763      -6.66935430868070      -0.27190906000225
F         6.66533803588971      -6.39359554691922      -1.71621751567262
F         8.33063615016423       0.08886880546509      -1.00725481101015
F         7.22762065962353      -1.50081924673427      -2.03738335914065
F         6.28906024818711      -0.39234372130358      -0.38697228399455
F         5.96312364245069      -2.82664606030565       4.51593229872311
F         7.96126231025048      -2.53113184242868       3.65793465710204
F         7.14480957595569      -4.55538608749869       3.86473671907087
