44
C12H26BF4N optimized with DFTB in AMS.
N         0.12974811612335       0.02791932509006       0.32695903406361
C        -0.71951320757318       0.00357653549510      -0.90404206739810
C        -0.72316862583773       0.35547399750425       1.51703702981759
C         0.79770901046587      -1.30581713412170       0.56971783726204
C         1.21030810736722       1.07113424663864       0.17767245679789
C        -1.90356005942713      -0.95233008112684      -0.79332210272778
C        -1.88233325308759      -0.61571169370495       1.69179601396929
C        -2.75498535842310      -0.63890112916365       0.43703527043050
C         1.88900570316520      -1.68851855427756      -0.42502911971491
C         0.75397126709462       2.52749141263371       0.21322540707803
C         2.36015168794525      -3.11092497989672      -0.09443808493026
C         1.94941119723583       3.41737052720640      -0.13231178336523
C         3.50171161613858      -3.53830532415189      -1.01297295272391
H        -0.08035973986627      -0.27460655331686      -1.74444300261697
H        -1.08592251537793       1.02043081266226      -1.06508089705004
H        -1.12560354068314       1.35929350942019       1.36631051436555
H        -0.06569919395461       0.35594368282973       2.38960367230747
H         0.01799602836123      -2.06866795715103       0.56551739217865
H         1.22843381590596      -1.25761795262543       1.57104014151620
H         1.70397298405707       0.87090838130005      -0.77547527883387
H         1.92118154999487       0.89758339914875       0.98778810001867
H        -1.55933303806890      -1.98898227968912      -0.75920077090960
H        -2.50463335875295      -0.83462637695958      -1.69916723848843
H        -2.47252764955403      -0.26982993298471       2.54437064325588
H        -1.52326232518066      -1.62045217327505       1.92547183422012
H        -3.23669475354447       0.33615811738356       0.30868610700757
H        -3.53813560720511      -1.39348154038306       0.54172414130619
H         2.74111516244765      -1.01267969307685      -0.32663327342132
H         1.52173957290147      -1.64673587408460      -1.45586047441353
H        -0.05410929409784       2.71453459235074      -0.50079041890914
H         0.39931842532472       2.79447094240270       1.21169277189681
H         1.52259328347494      -3.81016177625653      -0.19724665792360
H         2.69880920213362      -3.13388443625850       0.94570872591858
H         1.65613497927881       4.46516215614011      -0.07677392762158
H         2.76427063534715       3.24411980494646       0.57026224873748
H         2.30672930533511       3.20706308603806      -1.14091872591938
H         4.34966747780086      -2.86133879096118      -0.90506250594984
H         3.18315951488013      -3.53327472954096      -2.05702682949484
H         3.82703329783852      -4.54569926250322      -0.75349968281642
B         3.07112942542278      -0.46075008083641       2.84804009398297
F         2.76358102940376      -1.82918616081575       2.81387215202440
F         1.83172024335288       0.24902127200916       3.01554010153382
F         3.56194823453052      -0.08786378103815       1.57067094042532
F         3.94915659830674      -0.14264443939970       3.84080201141412
