20
C6H8BF4N optimized with ADF in AMS.
N         0.01801969758257       0.39719863682984       0.24430363906298
C         0.53802436497017       1.37945938937981      -0.51864979220513
C         0.71638367656898      -0.73102030468185       0.49558239540115
C        -1.24486397111484       0.61463656410044       0.96858174649436
C         1.77201845035610       1.22151824477225      -1.11793784303014
C         1.95274705055616      -0.93276232647368      -0.07955381740551
C         2.49229174129684       0.05472280456827      -0.89667300325360
H        -0.05461041190751       2.28532734453611      -0.60494015730836
H         0.25616071635693      -1.43337452727145       1.18561714426846
H        -1.87604385029689      -0.27583384432429       0.85628972877441
H        -0.97350395670730       0.79236779854085       2.01878359971582
H        -1.75008629393289       1.49047972825264       0.55078053298811
H         2.17544925145766       2.03736353616890      -1.71486509667524
H         2.50258554991927      -1.84231290064134       0.15594180929793
H         3.48577756425951      -0.07010042259327      -1.32804231524250
B         1.74093167428006       1.72552911096364       2.60715699354030
F         2.82812612251180       1.36933685481209       1.76527996220533
F         1.00834476679951       0.51661793323279       2.93616452577774
F         0.84262921960835       2.58014926645374       1.86139858334592
F         2.16322898633550       2.36436972487450       3.77139895324798
