46
C14H29NO2 optimized with DFTB in AMS.
N        -1.55663927938845      -0.27584111697288       0.07187255090607
C        -1.89697621950268       1.17399179573580       0.19571401703226
C        -2.54190204267697      -1.10954260041118       0.83945158609520
C        -0.21021803435354      -0.54320598160813       0.69385184055202
C        -3.33292755889145       1.48062291509016      -0.21806317891426
C        -3.98434761731693      -0.84089587138360       0.43833185028389
C        -4.32509750995196       0.64123304195669       0.58586238223793
C        -1.53403240781516      -0.71863146873148      -1.34940589802019
C         0.94838997524796       0.27612738235816       0.13232371953015
C         2.26058357300310      -0.37786473842244       0.58609313371990
C         3.47310314140985       0.36590130956842       0.02163792458600
C         4.77984045170329      -0.30262088201507       0.46010243963984
C         5.99750506381073       0.42870584107314      -0.10256642293251
H        -1.19683664196238       1.73411384141873      -0.42737697860032
H        -1.74148611021713       1.45123972635098       1.24246812069305
H        -2.40178665031103      -0.87983971171086       1.89911912581544
H        -2.26969229854374      -2.15641819797933       0.64782815842970
H        -0.30921646302557      -0.35757636779684       1.76629566135180
H        -0.00314549725104      -1.61288124281454       0.52109015380874
H        -3.50945485961403       2.54447282410499      -0.03780845893627
H        -3.46713577695467       1.29810808178074      -1.28772507345182
H        -4.16866872296004      -1.16985352612214      -0.58728580298979
H        -4.62338442281278      -1.43584666792844       1.09577256469683
H        -4.27639426184157       0.92815289114314       1.64162955314670
H        -5.34029750651601       0.82965979188050       0.22842052128822
H        -0.80635306511344      -0.13038578417109      -1.90199890385201
H        -1.26626403040708      -1.77990246779535      -1.35497835632341
H        -2.51700315226553      -0.58621459286481      -1.79249648905902
H         0.92542867449590       0.28793226873810      -0.96013400300856
H         0.90485726173690       1.31287620831648       0.48416090908363
H         2.30637506488885      -0.38155706410876       1.68044470396120
H         2.26870257687124      -1.41737699114986       0.24402581692636
H         3.46034492356484       1.40712881316838       0.36468000998119
H         3.41791225847011       0.37495139162738      -1.07251852113713
H         4.78818058636373      -1.34172208707230       0.11582549942472
H         4.83459984838781      -0.31225477642052       1.55404193570126
H         5.97262004204860       0.42970609530728      -1.19329638122948
H         6.01768862783246       1.46312728642270       0.24439144205822
H         6.91382793512832      -0.06436699711741       0.22299165349679
C         0.08536726310927      -5.42547850613724      -0.59066935566462
C        -0.20641900203468      -3.92192376626058      -0.38854064611155
O        -1.40879495000427      -3.56845970074067      -0.44862773858146
O         0.77364963743923      -3.17610829126095      -0.19661396286580
H        -0.78056073428832      -6.01933831860927      -0.30463073683428
H         0.29709408714865      -5.59200910521062      -1.64683824787723
H         0.95623805225956      -5.71780485372537      -0.00716390115739
