37
C11H23NO2 optimized with DFTB in AMS.
N        -0.51296232389154       0.62066272559672       0.05184343513990
C        -1.43841748120586       0.10156040196405      -1.00651243911449
C        -1.41893385443428       0.70929526329994       1.24755431994671
C        -2.29002409220560      -0.95207162744826      -0.31256207757007
C        -2.34729025190937      -0.49965352683242       1.15413974510131
C         0.59080294540309      -0.34907077923102       0.34190395069881
C        -0.00917808268584       1.97495029426760      -0.34770601607051
C         1.60271335579174      -0.52903440825247      -0.78923506928436
C         0.92455432632706       2.60551930416675       0.67206320031183
C         2.61632296168814      -1.60464677294564      -0.39926351359639
H        -0.87296064919379      -0.26673335567037      -1.86167918438137
H        -2.07559699260471       0.93833420839066      -1.30280691306577
H        -1.98676338893561       1.63948102230845       1.13380871669952
H        -0.82433486604815       0.73447442185480       2.16100045125559
H        -1.85665697952039      -1.95117447677035      -0.40666373078509
H        -3.28646326132105      -0.95205801830352      -0.75442537180433
H        -3.36058306443152      -0.18931176703158       1.41209284509103
H        -2.03353230864533      -1.29876519352809       1.83008431501640
H         0.12047199912200      -1.30825101992500       0.57014726245896
H         1.10192487466862      -0.00036454394292       1.24268226222838
H         0.48230186095982       1.87096131064816      -1.31743407957987
H        -0.90403245248920       2.60319861663494      -0.45891438553354
H         1.09869503439771      -0.82912419342317      -1.71122848485039
H         2.13186495553378       0.40739373289311      -0.98140337152572
H         0.44884426785656       2.67210224040809       1.64910308240506
H         1.86425238072248       2.06233709435289       0.77009581396677
H         1.14892115765527       3.61691754309626       0.33343997681489
H         3.14666893881037      -1.31972826959300       0.50996530879320
H         2.11658043763995      -2.55845096630872      -0.22731697910627
H         3.34315059026745      -1.73209782426843      -1.20063225248702
C        -5.05219936680121       3.49648452275787      -0.48880402994102
C        -3.83325608284346       2.56694351782513      -0.28462813256691
O        -4.02406974549588       1.33941425738767      -0.38460007889436
O        -2.74234480883174       3.13540366677826      -0.03508879904791
H        -4.88828632671684       4.09584098925867      -1.38361890794259
H        -5.96232564174900       2.91092853282782      -0.60052089897073
H        -5.13860075398368       4.16555752345711       0.36576655619037
