40
C12H25NO2 optimized with ForceField in AMS.
N        -0.89728904874363      -0.17278085813675       0.05414435394582
C        -2.03779335954413      -0.29550432351959      -0.90471925736986
C        -1.22388563516933       1.02126662010351       0.89371818602161
C         0.37096169378285       0.06236326491200      -0.71017180481886
C        -2.85948633428429       0.97614233204421      -0.82924216084516
C        -2.64411060496172       1.45290706121179       0.57928329958797
C        -0.82055223998322      -1.39076382403303       0.92429404293418
C         1.63943501594657       0.17448149210584       0.16974959949792
C        -0.46502847047892      -2.68843881206777       0.17565487103357
C         2.84481997963427       0.61155254818803      -0.66988508926362
C         4.10595318956213       0.71098502056354       0.18206883201122
H        -2.72049652931446      -1.13616633233633      -0.64086407109800
H        -1.71361211830700      -0.47458749890075      -1.95542706451967
H        -1.12185375983416       0.83219039964501       1.98691038794404
H        -0.56595608246347       1.89119293094373       0.66512560208190
H         0.53598386098243      -0.75066432066761      -1.45187337558601
H         0.27275091162535       0.99608164510721      -1.31203517114976
H        -2.46229741801232       1.72637225993549      -1.54848999240466
H        -3.93559977056418       0.78908562962112      -1.03756372856097
H        -3.35539330743162       0.94112272034184       1.26488987891955
H        -2.77201773767201       2.55450499368255       0.66111949778283
H        -0.07828009700032      -1.24837810771648       1.74014436038335
H        -1.79591886558853      -1.55013513230260       1.43940129394048
H         1.48669698070557       0.90757060683658       0.98918452572009
H         1.87361293343492      -0.81042233626926       0.62507631392143
H        -0.58989673220068      -3.55093637226006       0.86360292284798
H         0.59211829720937      -2.68124282146110      -0.15896180726596
H        -1.12358442520302      -2.84995630088082      -0.70158005599898
H         3.01926768372888      -0.12440405281138      -1.48503138545002
H         2.64388727287251       1.60443123803289      -1.12818026664462
H         4.34215054425302      -0.27221577424961       0.64221043083011
H         3.97272159355952       1.46934599904859       0.98295066892350
H         4.95776651590144       1.01637672427079      -0.45995755407922
C         7.35618780984573       4.09072448359766       0.60410234388565
C         7.10356775636188       2.71199204008212       1.12665083901254
O         7.41116727933721       1.74067154757000       0.45536758386101
O         6.59251898110636       2.55309449069883       2.22382866962410
H         8.44021196593635       4.21865024388475       0.40102776435712
H         6.78805136975659       4.24326790705945      -0.33753652352042
H         7.03726853991406       4.85560772262560       1.34413704780782
