38
C12H22N2O2 optimized with ForceField in AMS.
N         1.91255002318970      -0.94692721894080      -0.22327709023746
N         3.14916011700651       0.89649733517893      -0.09986578306488
C        -0.37053391494334      -1.88042130228720      -0.06770301514931
C        -1.04344064644872      -0.52686503943771      -0.33948203526015
C         1.00686594572574      -1.97325422324080      -0.73756446673421
C        -2.45661607396659      -0.47674446494013       0.25132643242147
C        -3.09569700349091       0.89739632136416       0.01666597411807
C         2.38123897837635       0.12481180948589      -0.89275750572138
C         2.40581695489572      -0.85202073204500       1.02853221448694
C        -4.50948831072478       0.95645154589987       0.58673240690793
C         3.17182314388960       0.29370668204402       1.10502109805547
C         3.79609219284003       2.15312906416189      -0.45458193283818
H        -0.26154382028982      -2.03404521851466       1.02818567864551
H        -1.01021702572771      -2.69779068502243      -0.46626085179680
H        -1.09899970850965      -0.35585960972628      -1.43721149084665
H        -0.43366572897533       0.28532528275564       0.11339895485283
H         0.88858015330400      -1.86217651304197      -1.83813157472290
H         1.44497184990906      -2.97658736494918      -0.54845429003842
H        -3.08277147417192      -1.26235979875846      -0.22632148343083
H        -2.40756909746719      -0.67786572100890       1.34432742886310
H        -2.47969206759669       1.68472323859783       0.50377245597552
H        -3.13906579230491       1.10984636766847      -1.07392121687010
H         2.14837383528988       0.35000249145540      -1.92646167327708
H         2.21104064307005      -1.55373781428478       1.82927894489403
H         3.69376030227735       0.66570111916517       1.97715054281692
H        -4.49264309985249       0.76924085409963       1.68151839096589
H        -4.94045632045849       1.96377818368289       0.40559557804228
H        -5.15611111423379       0.19981497161329       0.09360622035323
H         4.89306542681304       2.06229488759085      -0.31078708247346
H         3.59253016796757       2.41026197817904      -1.51611287960412
H         3.40760633706388       2.96813344368795       0.19180290364872
C         1.59501228170044      -5.07090088955345       2.37746180956223
C         1.07061267600850      -6.33167451266359       1.76634815010506
O         1.78551862874575      -6.99745270046359       1.03485195958233
O        -0.07005337410035      -6.69993474624601       1.99731565199315
H         2.47195145022158      -5.30440614555599       3.01722181616640
H         1.90486360114581      -4.36807345216117       1.57621114630231
H         0.81540473982213      -4.58292428468882       3.00084433080650
