29
C9H17ClN2 optimized with ForceField in AMS.
N         0.99435976545736       0.29938796298092       0.52935337013896
N        -0.99471949243901       0.37010636356879      -0.46051025841280
C         2.22069371740165      -0.21615634195237       1.13271046266768
C        -2.23364968598077      -0.05786248135332      -1.10605806547548
C        -0.00746660296041      -0.42473668713849      -0.00498680126908
C         3.41879193910047      -0.01747646411495       0.19811313220537
C        -3.43408810665973       0.12577607396978      -0.17108314910506
C         0.62861132808936       1.59168176546651       0.41098586079676
C        -0.60664185626467       1.63569026890413      -0.20331875474653
C         3.27363684291696      -0.81821785454865      -1.09521709778841
C        -3.31338872314343      -0.73031727682571       1.08918514019465
H         2.10633683100784      -1.29788358401479       1.36646778201803
H         2.40796801785589       0.31428513412515       2.09130066700194
H        -2.15852190322475      -1.12656464939398      -1.40613254444266
H        -2.39070607660124       0.53778732943234      -2.03134074855190
H        -0.01931505772459      -1.50668735005709      -0.05746859359718
H         3.53411023667371       1.06093803529605      -0.04450992704444
H         4.33949929894268      -0.35234567536203       0.72248120556581
H        -3.53084261852286       1.19548156560564       0.11537466825510
H        -4.35688792961308      -0.16883593456455      -0.71531876328500
H         1.21316401458012       2.43772573365261       0.74893535267712
H        -1.17513721447823       2.52342430921244      -0.44820786914496
H         2.42180747970905      -0.43603089802483      -1.69618343390945
H         3.10787108902776      -1.89322048513033      -0.86868891759799
H         4.20034165575354      -0.71930368664545      -1.69862629932092
H        -2.46014483415392      -0.38641693672139       1.71158096141366
H        -3.16452316937388      -1.79807605463229       0.82050851508614
H        -4.24359466971908      -0.64204935021447       1.68869026504758
Cl        2.33689523644325       2.64693919758034      -2.58762279017695
