28
C6H11F2N3O4S2 optimized with ADF in AMS.
N         0.44542325519522      -0.47652908512737      -0.76304154177653
N         2.40704353718918      -0.30460950330872       0.15090739816289
C        -0.76356789446074      -1.07030058052109      -1.36949482030825
C         1.38049019911110      -1.13785298577076      -0.06838338042801
C         0.89604014178457       0.80613777394030      -1.00387696848465
C         2.12771959618134       0.91298532276651      -0.42955314901519
C        -1.32696080197016      -2.21293552385433      -0.54773673708398
C         3.65929493395333      -0.69092036604359       0.79424438561155
H        -1.48918904121202      -0.24890813302717      -1.46212058810750
H        -0.47070374756495      -1.41275420295406      -2.37524385428441
H         1.34950330313696      -2.18791805343376       0.20364650791271
H         0.31928295452121       1.51328497943905      -1.58587649374796
H         2.83648684874345       1.73088127369119      -0.41790761642301
H        -0.64006576433990      -3.07111681797105      -0.52568456984182
H        -2.26008317797354      -2.55610541950592      -1.01765043941012
H        -1.55554064740752      -1.89016431045321       0.47933829273269
H         3.83306123434431      -1.75274640330048       0.58192855714680
H         4.47028909559027      -0.11642476121541       0.33442703581773
H         3.60185509168357      -0.49953055883100       1.87422965371159
N         3.11505055716912      -2.51339252066448      -1.81934088021963
S         3.64723911176879      -1.53055351640584      -2.98084190202727
S         2.01966793345968      -3.64182846017592      -2.12242682448179
F         2.28310778073881      -0.64456013116560      -3.35768542633421
F         2.86954202623999      -4.86565309358782      -2.79657400792842
O         4.50630256638118      -0.55712147357414      -2.32839662659007
O         4.01887978199094      -2.15755145295113      -4.22863080035225
O         1.00824871957701      -3.30453055002038      -3.10948311777928
O         1.59933844466882      -4.15876258877383      -0.82282008157162
