35
C11H17F3N2O2 optimized with ForceField in AMS.
N        -0.03323319495870      -1.33278447156068       0.34875843377189
N        -2.04553610294599      -0.39672509842698       0.23124182953093
C         1.31904465408998      -1.64653801240172       0.80536314663879
C         2.36709038646836      -0.87886604689157      -0.01184947888029
C         2.19997574812557       0.64151842392028       0.13049200435879
C        -0.93719195327685      -0.55765802397210       0.97935500063751
C        -0.59015134909828      -1.67841353236615      -0.82954756613296
C        -1.83967812607809      -1.09656469475114      -0.90261316346510
C        -3.19752165524163       0.44365881654988       0.54358611265469
C         3.29356952776743       1.39530994186098      -0.61911295388370
C        -3.13073759061847       1.74655268858349      -0.24433131609410
H         1.42744824705912      -1.38922800120789       1.88202020602614
H         1.49543528170288      -2.73901833381579       0.70212617346236
H         2.28609555431460      -1.16758311355734      -1.08249929550422
H         3.37719242786834      -1.17433620338260       0.34670426089244
H         1.21531304512456       0.95357368670305      -0.27933042770290
H         2.23857380943972       0.92528606002588       1.20441587674019
H        -0.77186543330373      -0.08208692905518       1.93886722541890
H        -0.11310175878822      -2.28644242238660      -1.58773386647136
H        -4.13363259242492      -0.09835074006214       0.29097588348148
H        -3.21346793749780       0.67684862716357       1.63053272030655
H        -2.53711466435926      -1.16065067893997      -1.72809842476977
H         3.26683013325822       1.14097226841350      -1.69995167728439
H         4.29193461491781       1.14077110197757      -0.20484670592148
H         3.13171472276563       2.48849123039462      -0.50816565447752
H        -2.19964665900346       2.29657129072483       0.00960246842283
H        -4.00387255450575       2.38288833336028       0.01030668510131
H        -3.14564992911049       1.53766766183693      -1.33488335174552
C        -4.07387037307946      -2.27739994417372       3.03843359980185
O        -4.24093587609492      -1.40005678047522       3.87053346509564
O        -4.66561119053941      -2.21849714440290       1.97308248409294
C        -3.14968283987702      -3.42540402962090       3.31618087543014
F        -3.84196029991086      -4.61582898742005       3.19072250327245
F        -2.63476957578533      -3.33712834954748       4.59791896078249
F        -2.10683075300359      -3.40758724549673       2.40864105811299
