40
C10H15F6N3O4S2 optimized with ADF in AMS.
H         0.56213874202860      -0.20695186779499      -5.41054025038019
H        -0.59142342345981       0.86400709672120      -4.54151622007122
H        -1.00648994035842      -0.86399779943198      -4.77651495519608
C        -0.18834367818349      -0.15218357577899      -4.60928421715797
H         2.25786288528244      -2.21542114649787      -1.22987717328014
H         1.13874559044045      -2.48374083224091      -3.76669739709321
H         0.32334632457756       1.39390445074890      -2.28442968461977
N         0.47585296750573      -0.47642713642169      -3.34921405741237
C         0.65842464623907       0.36637720193971      -2.32501110239396
N         1.35272380384921      -0.26791824879392      -1.37217364088359
C         1.63391712897481      -1.54392683846476      -1.80568673790587
C         1.08771231041105      -1.67456841864478      -3.04907736767926
C         1.73995320723658       0.30155066789061      -0.07524459881278
H         2.79013052547242       0.01621285795729       0.08279128978629
H         1.71409536244668       1.39512478780707      -0.18425719413239
C         0.82908191423082      -0.16577252397692       1.05388233914745
H         0.84967087722699      -1.26874555021591       1.11311893996850
H        -0.21456613810174       0.12328609694838       0.83126501268857
C         1.26484940172570       0.43174901562381       2.39171681616801
H         2.30616485890882       0.12821509116811       2.60037721635598
H         1.27403180567867       1.53400178118681       2.31186222082548
C         0.36120798772336       0.00958759995824       3.54742717309376
H         0.35568863075674      -1.08547193760594       3.66812486502319
H        -0.67742953653558       0.33558812125579       3.37818960491956
H         0.70198789971344       0.44986601506000       4.49634400629355
N         3.73413420302253      -0.21559372323950      -3.67080508068692
S         4.79433629732695       0.30314234972148      -2.58279386886003
S         3.63230440369153       0.32028898434411      -5.18757659062709
C         4.30935590554722       2.10597216200413      -2.14803053005123
C         5.22067672345601      -0.18440897986340      -6.10592800620925
O         4.48527283132968      -0.41936407493055      -1.34564700979020
O         6.17346725716331       0.41435159427937      -3.03083346127559
O         3.56760201812027       1.77264183917566      -5.31952275227558
O         2.60663209807127      -0.50781007454885      -5.83140300638536
F         4.61596522116659       2.35051527671138      -0.84559240727564
F         2.96160697694139       2.30725993357506      -2.28919154152074
F         4.95293790096382       3.00113365841447      -2.91200404072416
F         4.94870887836743      -0.20720298781972      -7.43463938620902
F         5.61829357372551      -1.41954154034830      -5.72525578099323
F         6.21664403931637       0.69234456312742      -5.89067944726750
