36
C10H19BF4N2 optimized with ADF in AMS.
N         0.29533520811581      -1.50201731778319      -0.08992819708767
N        -1.81715716802947      -0.99444546998669      -0.14645251386010
C         1.64945841915738      -1.79359754781213       0.42041611746649
C         2.70671099630577      -0.98623183540069      -0.31997832802792
C        -3.14078253492586      -0.52466665620265       0.26556135335230
C        -0.75218453150459      -1.14292106473361       0.65826660762178
C         2.51010347462290       0.52590791375887      -0.24675355177321
C        -0.09978656185149      -1.59362418773328      -1.40574002422516
C        -1.42289944008713      -1.25891606225570      -1.44373259313874
C        -3.34485325656273       0.95134341523999      -0.06717642917054
C         3.59870132998179       1.28850848985114      -0.99986625690752
C        -2.35884580449508       1.86480029370596       0.65217341826075
H         1.63025058893327      -1.54196365547695       1.49257722072378
H         1.81883506108242      -2.87779516676254       0.29776655485681
H         2.74381201836859      -1.33404120014402      -1.36592761933507
H         3.67977554870105      -1.26677248080306       0.11909727406629
H        -3.22547661516125      -0.70129939985073       1.34870202297825
H        -3.88514342431555      -1.16125218988501      -0.23548628501467
H        -0.74618207580737      -1.00034426434685       1.73037710211996
H         1.52373647791099       0.79134852170126      -0.66858075459381
H         2.49488302420117       0.84532114000215       0.81216095908588
H         0.57778195699434      -1.99142415734026      -2.15863056653455
H        -2.12170885167471      -1.23485366462043      -2.26997536987609
H        -3.26511581688793       1.08728020607990      -1.15922812781311
H        -4.38173487151170       1.21048631077008       0.20685572855362
H         3.60864967339524       1.00553042745735      -2.06411150196524
H         4.59463351789217       1.06350716430212      -0.58766376669913
H         3.44581340550161       2.37702061968667      -0.93970446530294
H        -1.31954449680550       1.63238213293338       0.37247600883253
H        -2.45185399037302       1.76587175929300       1.74590510143800
H        -2.54062532639888       2.91839696730274       0.39469281080407
B         1.36313847958758      -4.61398788439855      -1.57676360044657
F         2.11812348664081      -4.75196292306354      -0.37000478553324
F         1.43511317366553      -5.76089314532234      -2.36497134001604
F         1.90001592176748      -3.47413356677225      -2.30306515313393
F         0.00922005016635      -4.30639412429015      -1.22769624920528
