33
C9H15F3N2O3S optimized with ForceField in AMS.
H         0.48213605171483      -0.59214350891860      -4.87673895838139
H        -1.21692068890609      -0.65872801668193      -4.26517457440585
H        -0.17288719129957      -2.13056234978429      -4.18448765819487
C        -0.18108070425047      -1.02371005773325      -4.09825096321354
H         2.35186405409983      -0.45052920826315      -0.26160503428242
H         2.24347331173991      -1.55385601004827      -2.69339708537378
H        -1.34705045526387       0.53878234565122      -2.01466954199937
N         0.29310193210800      -0.63021719830838      -2.77756626143582
C        -0.35698754098743       0.12388745552707      -1.86977932292965
N         0.38094666107261       0.28635315334634      -0.75376587093347
C         1.53212811178909      -0.38413336179433      -0.96523079191789
C         1.47760367439254      -0.95171601536293      -2.22199900673467
C         0.00557029529660       1.02817285137065       0.44820789667278
H         0.81547071092665       1.74499993247145       0.70663864803667
H        -0.92176160345723       1.61173120668991       0.25518057052985
C        -0.23648709918066       0.06021471674504       1.61017174315904
H         0.69681969540955      -0.50840372711597       1.81523499684450
H        -1.03143698028667      -0.66038438521269       1.31721781108209
C        -0.66472998411810       0.80524643892772       2.87894131275927
H         0.13847792001908       1.50843236741050       3.18972349397068
H        -1.58846533996821       1.39064547946899       2.67849924517434
C        -0.93810297438084      -0.16976880504941       4.02103337909630
H        -0.02290504657862      -0.75307726398100       4.25852259699502
H        -1.75625652491828      -0.86868398137855       3.74419993921662
H        -1.24508195170419       0.39426590807309       4.92676926517113
S         2.99708811955083       2.39229299932734      -3.69829991509816
O         3.87579452221973       1.26097478005779      -4.25220941343377
O         2.97655470962814       2.11076024474518      -2.18930564936196
O         1.58449833810945       1.99156916419114      -4.14743074293882
C         3.50775749474480       4.07241101156237      -4.15489841938448
F         3.55136164971216       4.18431887535875      -5.53148960562322
F         4.76025687798117       4.33079687198324      -3.63139293335824
F         2.60014235068528       4.98250851532496      -3.64722637300693
