59
C17H21F18N2P optimized with ADF in AMS.
N        -0.15213455767227      -1.35739484157900       2.05135496490039
N         1.78980594675363      -1.46984476839261       1.08993376682196
C        -1.25995149166022      -0.88700486515634       2.90047551780797
C         3.15691625195975      -1.12090245937027       0.67363429768963
C        -2.18156012271896       0.07554651370347       2.15699392685573
C         3.16008862321411      -0.27504812333671      -0.59686612888946
C         1.04827567365810      -0.77107693667926       1.95996919338007
C        -0.18333744243751      -2.44879852800810       1.20825755585110
C         1.03829280847906      -2.52064481233839       0.60216105406531
C        -1.49860000506156       1.36712324132086       1.70937880815031
C         2.47783164085204       1.08179693046098      -0.43028297163764
C        -2.47742640004291       2.32776986105838       1.03839965516067
C         2.55312902817000       1.92674631284233      -1.69925656731167
H        -1.79355833911975      -1.78588733250876       3.24182868045169
H        -0.80318863867956      -0.40636248748720       3.77479269084675
H         3.61704960110149      -0.58494923157563       1.51548941658833
H         3.69694001063871      -2.06961163593778       0.53652644427241
H        -3.00375645928130       0.31918982192366       2.85267230485710
H        -2.63863609998086      -0.43685627124567       1.28999214112927
H         2.68801547360494      -0.84155872980961      -1.42062671340363
H         4.21713480091310      -0.12647362632867      -0.88011897506967
H         1.35579816407390       0.10665851169069       2.51754978910136
H        -1.05446162549155      -3.08829369228489       1.13373588117014
H         1.44198817569374      -3.23339857326274      -0.10660406495063
H        -1.03226222917150       1.85288130312471       2.58219611888175
H        -0.68264443129886       1.13240353929960       1.00282849407444
H         1.41850500852262       0.93426022858876      -0.15706127121451
H         2.94754871988465       1.62220818692847       0.40900140228803
H        -3.29585765377210       2.59438356938449       1.72586918502629
H        -2.92516306932216       1.87785436550927       0.13722734347314
H        -1.97491408351996       3.25909914944550       0.73983699553402
H         2.05181984901510       1.42453639056141      -2.54236349449703
H         3.60017395266326       2.10949556918623      -1.98858690668473
H         2.07043839055455       2.90351457422858      -1.55055235955772
P         1.88987773259727       1.45712152899754       5.37416122161931
F         2.09396003464065       3.01602593153861       4.84220131997860
F         0.79489377700563       1.19873490079419       4.08243173547373
F         2.94465405604683       1.62011388285189       6.63816526469135
C         3.43061641013476       1.09269477756931       4.14949992172767
C         0.47000048919020       2.19053551440036       6.55038410115936
C         1.51176266649824      -0.47045781800546       5.81977472787762
C         4.80389507504125       1.76938799929449       4.47645083813801
C        -0.93448141500593       2.49291544953305       5.94808248595389
C         2.34815641992038      -1.16775981818276       6.92585313017040
F         3.08938839367474       1.55184566301849       2.87722608524086
F         3.77111043975212      -0.23790113031281       3.96983055151259
F         0.91200925587064       3.40395111276178       7.02598663990476
F         0.25614394386171       1.41004368228689       7.66289073927203
F         1.64965680187940      -1.27438336580891       4.69252216243086
F         0.18877352292241      -0.62823974469842       6.17829828480483
F         5.63527862714348       1.58593338394561       3.39895130578655
F         5.38762708052047       1.17823670870142       5.54112861653555
F         4.71674428392757       3.09177945906919       4.69670469557877
F        -1.72535339910913       3.06213260307654       6.89613960470066
F        -0.85216356045203       3.35183258725677       4.90430396011035
F        -1.57218143147493       1.36858139791561       5.51753563372938
F         1.97984639270201      -2.48101698172086       7.01919394638433
F         2.15033196277204      -0.59777068237352       8.13070825346599
F         3.66818312061849      -1.13147076576480       6.63132970779138
