40
C10H22F6NP optimized with ForceField in AMS.
N        -0.88271292621538      -0.16787559600715       0.05338402997985
C        -2.01624916428540      -0.28492762484425      -0.91462260204163
C        -1.21813223084126       1.01775247880842       0.90135385062632
C         0.39095860895877       0.07741967474719      -0.69935885418017
C        -2.84456992588088       0.98130940425386      -0.83080757664932
C        -2.63734983781679       1.44916285122292       0.58114814906474
C        -0.80958134106355      -1.39379131858679       0.91264503027706
C         1.65456073412317       0.18722645632617       0.18917359117756
C        -0.45928418982684      -2.68672804983837       0.15273595293903
C         2.86578421711966       0.62872586723682      -0.64177269243824
C         4.12519623303673       0.72300599926120       0.21490984029913
H        -2.69718985136366      -1.13133752881107      -0.66573022663849
H        -1.68352270490522      -0.44993217057660      -1.96509341274511
H        -1.12295371693606       0.81838880489418       1.99347830228559
H        -0.56034283367580       1.89090902033860       0.68589927864129
H         0.56342435527011      -0.72844662199328      -1.44683664341559
H         0.29403887018449       1.01568631698593      -1.29382608126296
H        -2.44645134265243       1.73721484765237      -1.54157697293336
H        -3.91944746303822       0.79326108693763      -1.04509414013808
H        -3.35195665211071       0.93242077364113       1.25937627547079
H        -2.76874327474792       2.55011928790167       0.66732429691454
H        -0.06749034452361      -1.26056966596591       1.72986774294081
H        -1.78553315655147      -1.55463928555018       1.42585851971419
H         1.49588211403228       0.91713880599111       1.01013032670220
H         1.88651824219071      -0.79888459349254       0.64271722381413
H        -0.56399051222858      -3.55228498357391       0.84005575010787
H         0.59008610121602      -2.67222154657856      -0.20449974211622
H        -1.13572277320174      -2.85190562152467      -0.71001575535162
H         3.04343063674569      -0.10230030405876      -1.46021087541578
H         2.66743811884373       1.62376337429151      -1.09598772375671
H         4.36165390978834      -0.26442391984157       0.66524934464395
H         3.98788322661916       1.47246612354453       1.02304448054244
H         4.98114034199728       1.03746201037607      -0.41877218094618
P        -3.96703792846185       4.28841904144017      -3.27317968180652
F        -4.48720501623829       3.91526378519775      -1.67833745583209
F        -3.86998097515138       5.95456763683782      -2.86388706430927
F        -2.32253337751778       4.11014611726932      -2.80767439489624
F        -3.44421317463155       4.59794139078579      -4.88064499828163
F        -4.09496989248085       2.61685406182546      -3.65082872444560
F        -5.58852572637891       4.55592820017598      -3.77543201434068
