46
C12H26F6NP optimized with ForceField in AMS.
N        -0.71937974834756       0.31302141616065      -0.15104505351087
C        -1.28271808725162      -0.45072489048831      -1.31194768904806
C        -1.84860174172020       0.72169205381546       0.74783410689902
C         0.27437325558898      -0.50577034577672       0.62922732476854
C        -0.08853281661402       1.55318176118709      -0.72056486675486
C        -2.13394656385846      -1.66639989226761      -0.90911554944223
C        -2.74764636421687      -0.44730037223436       1.19934937095714
C        -3.27552146669311      -1.23817767078560       0.00657547180987
C         1.55591668003098      -0.92143860167774      -0.13590618745392
C         0.64099785480386       2.46581143195161       0.29601409229294
C         2.48916559976262      -1.72961456436630       0.77593805206215
C         1.21470281099548       3.69797241730731      -0.39746711920924
C         3.76000147237247      -2.14725423421465       0.04260702869856
H        -0.48459427324124      -0.78640694355066      -2.00638625722046
H        -1.93825954717990       0.21374778690686      -1.92303586256519
H        -2.50160098734870       1.46731977394090       0.23776868930958
H        -1.46633973850056       1.20976189106239       1.66988228594375
H        -0.19020882188987      -1.43719526267493       1.00585566762980
H         0.57723895769323       0.03844147110925       1.55056706170628
H        -0.86444898182476       2.17298486357438      -1.22798738082612
H         0.62914431894046       1.28531975657193      -1.52642007825269
H        -1.51539645481724      -2.44877614296988      -0.42373778098403
H        -2.56565283631684      -2.12315935731036      -1.82539696922705
H        -3.61316694303405      -0.03788769588545       1.76303432821430
H        -2.20368762001753      -1.11970947446917       1.89423520399597
H        -3.99378790473010      -0.61005587856244      -0.56506713402692
H        -3.81645208206908      -2.13816942977567       0.36913371354430
H         2.11089702035223      -0.02956478530807      -0.49083867442663
H         1.29775882502549      -1.55467900677555      -1.00827355615466
H        -0.05547065561087       2.81561545486776       1.08352543827143
H         1.48588201847165       1.93222716717716       0.77591463349170
H         1.96683679424214      -2.64411655279197       1.13260810275820
H         2.77290887374163      -1.11784575344892       1.65984008538283
H         1.73003798526901       4.33845562388348       0.34858533689126
H         1.95094511705328       3.39510476913273      -1.17121457758715
H         0.40260371577524       4.28874439863512      -0.87189504569653
H         4.32255961265734      -1.25104442383146      -0.29545203934786
H         3.50963736120437      -2.77895003675237      -0.83624664718594
H         4.40587117271302      -2.73404065902771       0.72904534342944
P         2.21551869098889       2.49702469371219      -4.64497785252800
F         2.08052690903721       3.57334083279813      -5.97756753590091
F         3.80881948172475       2.11085418124691      -5.15889947905212
F         2.81572976927189       3.79219381483490      -3.68910346110068
F         2.45609272524468       1.36729073187172      -3.37342075889166
F         0.64181205099261       2.86776784880601      -4.06222881597424
F         1.53585479212904       1.26993896139197      -5.63730012678903
