45
C11H24F2N2O4S2 optimized with DFTB in AMS.
N        -0.36417821143601      -0.44435961613984       0.07732106024582
C        -1.04607189068209      -0.00588187224035       1.34774658997725
C        -1.18733422554185      -0.01367949163120      -1.10148808078571
C        -0.18412102986130      -1.93503416945158       0.11729002432021
C         0.95809914967567       0.27083582459923      -0.04581894225386
C        -2.49193328574579      -0.47699467653195       1.43963661785322
C        -2.62841924088538      -0.50569304860795      -1.04453063259077
C        -3.30609464886527      -0.01831085110309       0.23424722443231
C         0.57477394742791      -2.55867826641579      -1.04937842319775
C         1.99067434081110      -0.05496174042913       1.03081603985281
C         0.72502693187710      -4.05457978882662      -0.76133431768364
C         3.26873853727932       0.73599050597770       0.75680287138466
H        -0.46935681635155      -0.40208143166495       2.18620731699781
H        -1.00380297892819       1.08695914853880       1.36789940813575
H        -1.17407962953246       1.08015248453414      -1.11239625737059
H        -0.68899021102648      -0.37652916518950      -2.00256544092164
H         0.33219651307375      -2.16268929399109       1.05115951902276
H        -1.17612586717394      -2.38277752730419       0.17490104164340
H         1.35766112175137       0.02949120925107      -1.03426650702591
H         0.73203685033581       1.34100660639899      -0.02499057256840
H        -2.53724970058961      -1.56381448232807       1.52636564412451
H        -2.90733645848172      -0.05760259141254       2.35892224612536
H        -3.14423318119806      -0.10717423997874      -1.92217988191348
H        -2.66704495852301      -1.59615972919431      -1.10160675972189
H        -4.31742704266007      -0.42617222464064       0.29421561107241
H        -3.37724414552720       1.07443815452953       0.21984531142563
H         0.03111184811221      -2.41754413470306      -1.98840854780272
H         1.56703723267617      -2.11386317191951      -1.15842339192413
H         1.60958462787853       0.21053955005040       2.01807417016376
H         2.22817110517556      -1.11999098172105       1.03348582370883
H         1.22065822493546      -4.54446448363453      -1.59839862855154
H        -0.25210948355708      -4.51384724334076      -0.61135757813784
H         1.31827751482262      -4.20490719784562       0.14048199003757
H         4.00357482910007       0.50557665044410       1.52674584350843
H         3.07126674291025       1.80862782291340       0.77196967688099
H         3.68675610873600       0.47025169029954      -0.21501309783235
N         0.52792448622430      -3.60074545489459       2.63808411373866
S        -0.99862683719316      -3.73833832352478       3.05755992179078
S         1.48381480862502      -2.65378170011215       3.47677016490517
F        -1.48946233867324      -2.22979676103459       3.45833424519652
F         1.56933136007891      -3.28479132839515       4.95007941258567
O        -1.73774740068604      -4.01550639390550       1.86012952353816
O        -1.25640106827958      -4.51155343044453       4.22253341455233
O         0.97863380417788      -1.32357315660902       3.68258014799066
O         2.79399154441408      -2.78224076057052       2.92520113537079
