22
C4H12BF4N optimized with ADF in AMS.
N         0.45407966988356       0.00151068240276      -0.13261701406056
C        -0.42505310594483      -1.18276613494030      -0.43149681667914
C         0.25834711491710       0.41549429269050       1.28874796202321
C         0.08661595297502       1.14600547451614      -1.03815712452798
C         1.89615038995992      -0.37163721891569      -0.34661480882303
H        -0.14091978048076      -1.99469825162246       0.25030682535868
H        -1.46631610933835      -0.88289367889469      -0.25681437046310
H        -0.27241515542625      -1.47830294618378      -1.47852233081830
H         0.90231816233935       1.27935549660450       1.49666308080203
H        -0.79509428445256       0.68455195758459       1.43670915528871
H         0.52928329236765      -0.42386286307259       1.94154912535850
H         0.73243175882899       1.99668473326968      -0.78535053309978
H         0.23965355994919       0.83340658183544      -2.08005128739777
H        -0.96620852226591       1.39671550812177      -0.85454576260344
H         2.51003537784754       0.50878426876316      -0.11716914887372
H         2.13643608835947      -1.19505891834621       0.33817189253642
H         2.02811918633332      -0.68009894695930      -1.39260268426644
B         0.96117212611539      -1.06304600140091      -3.81150276382528
F         1.14276848413534      -1.44542374621636      -5.13357345765520
F         1.77383941393796       0.07529025094765      -3.47103902810823
F         1.30849916589894      -2.12201961204493      -2.89970793436805
F        -0.40723998894008      -0.70415418073897      -3.54577737479752
