42
C12H21F3N2O3S optimized with ForceField in AMS.
N        -1.27958891572546       1.30870268739170      -0.23440769057752
N        -2.65184847441900      -0.40077100863368       0.13660173778366
C         1.10686055477481       1.93478042306599      -0.22192441577002
C         1.57564866362949       0.48131639177288      -0.37969120787728
C        -0.26856131510073       2.15712941035886      -0.86219493803248
C         2.97832008948639       0.28435721762553       0.19944956010865
C         3.42735336416601      -1.17306986093504       0.04640774578748
C        -1.79828266956169       0.17010430994883      -0.73472288260447
C        -1.82098312643769       1.46118111374598       0.99116557254877
C        -2.67543485115932       0.40206654361875       1.21993393493880
C        -3.37212370583394      -1.65814381574088      -0.04077429620525
C         4.82247720563567      -1.38238408675241       0.62278880579478
C        -4.82846561698888      -1.38281746519535      -0.38973301644210
H         1.83757023762312       2.61300235720486      -0.71469324170335
H         1.06099596727116       2.20096659700980       0.85667786685499
H         1.57899672760588       0.20929750534747      -1.45836014396024
H         0.87296313490036      -0.19528457458855       0.15382789840011
H        -0.56235680824530       3.22340021483502      -0.75260144931589
H        -0.20862361083545       1.93683828566195      -1.95091254393710
H         2.96938470028257       0.55639314046878       1.27762531296688
H         3.69384359814366       0.95081072995746      -0.33058457433326
H         3.43656560038689      -1.45190483790626      -1.02988668400834
H         2.71590321126912      -1.84235968864753       0.57822887379482
H        -1.54028128515827      -0.24648469532596      -1.70051161409214
H        -1.60142889793120       2.27283544303587       1.67258818896357
H        -3.25568674316337       0.22249365679971       2.11572747419256
H        -2.90875179548394      -2.24998976573108      -0.86041228173283
H        -3.31259778532940      -2.26012105979827       0.89199890101737
H         4.82369710086801      -1.14674054182769       1.70715704730467
H         5.55729026967448      -0.73313692284543       0.10061294014167
H         5.12618371783974      -2.44175677351084       0.49034973844652
H        -5.31802032802441      -0.81494125488146       0.42936185040353
H        -5.36645734736605      -2.34293757294126      -0.53628723425585
H        -4.88509442499732      -0.79142421841573      -1.32849294036366
S         5.87554494451961       1.42808641064413       3.24590120742642
O         4.41895969358544       1.07741073627107       3.58210555605496
O         6.00804740736493       2.87328971577034       3.74695475448475
O         5.85341574069800       1.59221599334998       1.71949826891846
C         7.11993512471875       0.27189675288196       3.88832071232745
F         6.89468106919782      -0.98888531106007       3.37064685844798
F         7.03459360547749       0.22374108803458       5.26639243429231
F         8.38051761364202       0.70063782833601       3.52008006571064
