41
C13H25ClN2 optimized with ForceField in AMS.
N         1.34214451107538       2.29626111852079       0.09093102792596
N        -0.86579723743686       2.43015679604753      -0.14735591998747
C         2.72615064782357       1.90909486456610      -0.17834692039251
C        -2.20142003702431       2.23384949961624      -0.71021390809728
C         3.01463053735140       0.49306714034140       0.34349424072852
C        -2.43320564334881       0.76047750262439      -1.07919680666549
C         2.08108007091680      -0.55269163837797      -0.28693773785765
C        -2.34213065389611      -0.16057095525003       0.14732931800732
C         0.30892374116450       2.21162292227905      -0.76958774802290
C         0.80428080605955       2.58606259871795       1.29276783949060
C        -0.56423006398125       2.67792973661315       1.14329112380547
C         2.45203024783363      -1.97401036710947       0.14603151285147
C        -2.52886616636246      -1.62961148869508      -0.24649753082299
C         1.49004958913607      -2.99414348323163      -0.45732528425570
C        -2.42678223603229      -2.54297372483475       0.97272571969297
H         3.41338646000716       2.63196700409832       0.31206404163855
H         2.92559883985277       1.94794982900634      -1.27192635976664
H        -2.30954564733572       2.86250596932098      -1.62014486144205
H        -2.97659087369641       2.55857993726101       0.01848802469269
H         2.90107706771613       0.47768979466080       1.44937500752644
H         4.07045351696262       0.23918161795087       0.10288705130210
H        -3.44303027966785       0.66406344022746      -1.53451049726449
H        -1.68609777026770       0.44898296081906      -1.84145042108028
H         2.13770335703334      -0.47928952077336      -1.39534189418112
H         1.03540254917176      -0.35094456243152       0.02842877205079
H        -3.12366564454743       0.12923729020067       0.88349360655778
H        -1.34728629428377      -0.04737157647456       0.62862199020367
H         0.40282197426190       1.91056088182743      -1.80571061675380
H         1.35794988418289       2.66060481090771       2.21988411249138
H        -1.28880957673458       2.83797787841627       1.93161745162106
H         2.41031826752084      -2.05338072321315       1.25442251460549
H         3.48500694964400      -2.21071490983713      -0.18875415026805
H        -3.52521746101286      -1.76934073793428      -0.71915868298819
H        -1.74617653801162      -1.92196189745993      -0.98022644215414
H         1.47606537550296      -2.90859199090104      -1.56483552115514
H         0.46442621928783      -2.83063414278916      -0.06652753469959
H         1.81422394344665      -4.01989559159410      -0.18416949901746
H        -3.24154725665598      -2.31593752908588       1.69281876445810
H        -1.44659586927439      -2.40971524513964       1.47838421991974
H        -2.51880969222096      -3.60217753741528       0.65215018421121
Cl        0.64470355193962      -5.03797867567557       2.52684843439161
