33
C9H17BF4N2 optimized with ADF in AMS.
N         0.98680073851981       0.58393761719488       1.16789278604725
N        -0.94109371851076       1.22747550590155       0.40271251784174
C         2.30079118358356      -0.06632469985850       1.26586404338030
C        -2.14578576921586       1.31383507670124      -0.43048120408687
C         0.06859534897683       0.37081690125771       0.21589625564348
C         3.35544918046070       0.59636359489805       0.37962431211313
C        -3.30255276012312       0.50883269751399       0.15213329181649
C         0.56209536091341       1.63053357444443       1.96132799461199
C        -0.64958437371095       2.02941789753245       1.48189381817159
C         3.20803374826418       0.25521428898275      -1.09855605215918
C        -3.03603226485929      -0.99180158927140       0.21754613760171
H         2.16348688852469      -1.12699189520223       1.00062229204285
H         2.58035577024176      -0.02256866446348       2.32907087309740
H        -1.84914071340409       0.97214809772458      -1.43279085076563
H        -2.37201978116514       2.38380831203401      -0.52854264187004
H         0.15012332480706      -0.33442631346758      -0.59968379090571
H         3.29114693039746       1.68891620796041       0.51350325206008
H         4.33967957634911       0.26651587201374       0.75691505125043
H        -3.54893938152550       0.89503119391407       1.15707087479531
H        -4.18105406715579       0.70975566324907      -0.48516886520841
H         1.17465174810372       2.02227645435809       2.76266357663928
H        -1.29970097212228       2.84134980422549       1.78030303083069
H         2.25591473961699       0.62663273571749      -1.50475457993182
H         3.28644264075021      -0.83292858459347      -1.26346962546085
H         4.00302680331331       0.74455563810274      -1.68037652314145
H        -2.19046319109677      -1.22183556553222       0.88532684143158
H        -2.80607894452723      -1.39561947312942      -0.78182279393643
H        -3.91491993240391      -1.52964254203607       0.60334962085557
B         0.62192925981206       3.02331855641524      -1.75525186754155
F         1.23606649424044       3.73359471754037      -2.78823809944506
F         1.49193838996048       2.90976710247576      -0.62360170804708
F         0.30832604238997       1.67978201757851      -2.21003103273566
F        -0.58880691290505       3.64929067711773      -1.33254223519510
