43
C11H24F6NP optimized with ForceField in AMS.
N        -0.23032122504065       0.30175238518224      -0.17054009478794
C        -0.92400750376154       1.28174377446643       0.72885604054017
C        -1.13090848305753      -0.00589012757700      -1.32848201147161
C         0.12343839034621      -0.93503126129069       0.61059208240250
C         0.99340459263616       0.96085998843963      -0.74272981371501
C        -2.32972209803207       0.83648236589455       1.18122267417423
C        -2.52030976116039      -0.52333791418503      -0.92040199760520
C        -3.21487804425864       0.48271399002766      -0.00942980333979
C         0.92046043709938      -2.01253860355814      -0.16491254466318
C         2.11167239094709       1.29971386367044       0.27399488125822
C         1.24009894046518      -3.20442318232433       0.73447292437700
C         3.25092918556557       2.05481268697335      -0.40543131500277
H        -0.33484711443183       1.46176133594716       1.65316983026773
H        -1.03335360662368       2.26741596893927       0.22054789747579
H        -1.29564566797058       0.91359338878786      -1.93753030548929
H        -0.66740777273843      -0.73394158878826      -2.02487959744223
H         0.69939806445431      -0.65943303300098       1.52116638223415
H        -0.78650451192351      -1.42904287599194       1.00271170418427
H         1.43515178093880       0.33119474215086      -1.54659028757750
H         0.70607963513630       1.90990639677266      -1.25186041305281
H        -2.26754011407331      -0.02328691757181       1.88055426072589
H        -2.80758336068858       1.66957766514798       1.74151170417853
H        -3.13831844418785      -0.66008007802612      -1.83438798790729
H        -2.45489877977085      -1.51601043604439      -0.42887874088931
H        -4.17373659526655       0.05406041207098       0.35521110889174
H        -3.44599981633950       1.40598896388292      -0.58552604791138
H         0.33389476437842      -2.39481553229148      -1.02416446023691
H         1.88281558607875      -1.60987390304873      -0.53928604961309
H         1.72839734684661       1.94254420636476       1.09092601296084
H         2.53781377625115       0.37658074118053       0.71775682852610
H         1.80582935159426      -3.96508333691643       0.15595447599989
H         0.30305560196451      -3.67004482695810       1.10795853298028
H         1.86087346023883      -2.88232680457172       1.59729001418627
H         4.01755812404826       2.32713868758780       0.34985970810279
H         2.87264148454599       2.99003844615043      -0.87097925819697
H         3.72507753337129       1.42019609914762      -1.18433207992047
P         7.63028553444411       0.06599048588852       0.08868249009152
F         7.10020982691089      -1.27676292374747       1.02004863581845
F         9.04146422681968      -0.81415851574321      -0.34132355932339
F         6.77715167653530      -0.55304036435498      -1.26804602739467
F         8.12553780935021       1.38817799060168      -0.89025028520693
F         6.24310573872906       0.93718711697763       0.60230287459853
F         8.48366738002918       0.72355792453784       1.42693639787286
