61
C17H24F18NP optimized with ForceField in AMS.
N        -1.38478248437275       0.18655441173127      -0.06647125892076
C        -1.66061300651853      -1.00162815503241      -0.93248447151138
C        -2.48839110674912       0.19294470958465       0.94205061190632
C        -0.07084257742760       0.02183831461968       0.63746842997593
C        -3.02953298448503      -1.54779248631041      -0.57153310443067
C        -3.20843195909722      -1.13836760150562       0.86274194752188
C        -1.43567865838503       1.43405650294352      -0.89604237732741
C         1.16417582146275       0.02829488685802      -0.29599927120615
C        -1.15361043076203       2.73020222887548      -0.11455061135241
C         2.43248073466414      -0.35595415976648       0.47633288571674
C         3.66442012910568      -0.33341917737996      -0.43581449465135
C         4.92642195073050      -0.71140954323395       0.33396032757084
H        -1.62294900114118      -0.77096075526014      -2.02177229357826
H        -0.93156627152864      -1.82691028682710      -0.76133704915648
H        -2.13392103232139       0.37052749795467       1.98318384264661
H        -3.24724332692748       0.98116550049364       0.72929468885382
H         0.06735869794503       0.82217502959627       1.39784135402756
H        -0.07643384189310      -0.93369763539017       1.21196032291682
H        -3.80785389612158      -1.06419318634870      -1.20268770983351
H        -3.08262078232368      -2.65195361134540      -0.69075407672107
H        -2.71365318892685      -1.87639317880017       1.53233668485813
H        -4.28330165896603      -1.04697101348344       1.13217790967639
H        -2.43950892868186       1.53325921271175      -1.37003602865342
H        -0.71632002078231       1.37635742650210      -1.74188094652292
H         1.31085057973720       1.04300449911774      -0.72149510613124
H         1.02603953303354      -0.68343785472519      -1.13652521042588
H        -1.79604076695643       2.81542678069373       0.78485353077014
H        -0.08900509996581       2.79121286316542       0.18868775252231
H        -1.36215956003538       3.60327645143761      -0.76717157410757
H         2.31037228142829      -1.37703871983826       0.90071961395196
H         2.58248649370125       0.35996520134887       1.31474738672848
H         3.52477143710694      -1.05258650007507      -1.27236021418340
H         3.79624206066480       0.68419264245721      -0.86414996786752
H         5.80090574446754      -0.68505792708557      -0.34967412263967
H         5.10214131143134       0.00663215869647       1.16324335226743
H         4.83182702875157      -1.73694975483684       0.75045276720805
P        -3.12386553353477       6.84328706579282      -5.12156633876969
F        -1.68674421822979       6.02101031103525      -4.65235083987767
F        -3.62864485483144       6.39491569905312      -6.70734911387978
F        -2.99601750906759       7.22290388594520      -3.44848292748813
C        -3.80015830504802       5.04636431331222      -4.84815096573330
C        -1.66006291959131       7.78995849404086      -5.96199213995695
C        -4.46884042101494       8.21740070030341      -4.92264662049410
C        -3.60333196725945       4.40870217868061      -3.44580860366109
C        -2.02567288162354       8.92414436663020      -6.94250049564219
C        -5.77433539231325       7.82058413796500      -4.20579001148961
F        -3.18255035684872       4.18961446153554      -5.75137206278384
F        -5.15070106465178       5.01365954948441      -5.13111616549851
F        -0.88358495656718       6.89608818508251      -6.69383164407393
F        -0.86274020224071       8.34889461340939      -4.97315420921801
F        -4.84625482204744       8.65364740295085      -6.18007004941988
F        -3.93176584842776       9.30837132483805      -4.25281333894348
F        -4.29793936933567       3.21263894449914      -3.40081315852147
F        -4.08104883207283       5.20773719632750      -2.42941614928703
F        -2.27162726630205       4.12391356244616      -3.20437804617553
F        -0.86789883279685       9.36733917322758      -7.55820043202859
F        -2.88547837054036       8.48451322093164      -7.93145775975391
F        -2.57998890018316      10.00393460318517      -6.28575823707374
F        -6.56308426911722       7.03553395914966      -5.02487065044988
F        -6.49249742100453       8.96706729050726      -3.91480740894142
F        -5.53587526651119       7.16224678782327      -3.01994562573662
