36
C8H18F2N2O4S2 optimized with ForceField in AMS.
N         0.01150335729647       0.00174792002319       0.00595825861187
C         0.93134119431390      -0.84948989567683      -0.80931684101640
C         0.91176932629068       0.86088327605895       0.83485361145069
C         2.34067308529678      -0.31187254117972      -0.65431804513532
C         2.32806124013563       0.33586838331225       0.70092161676764
C        -0.82718057672359      -0.85657906292752       0.90454980868312
C        -0.82040776032607       0.85298947735727      -0.90533407005759
C        -1.82312794533758      -1.77067851230680       0.16722881253698
C        -1.83461578005019       1.75881329583341      -0.18302197533103
H         0.65871854521849      -0.88347291654355      -1.88923269995792
H         0.95054160439715      -1.90655640061396      -0.45654698608831
H         0.62271000406514       0.89242759883866       1.91052210217425
H         0.92723670064921       1.91807709750028       0.48224601026625
H         2.54088216272748       0.45269308138983      -1.43629681607901
H         3.10309340693789      -1.11923672748035      -0.71302602360402
H         2.52464666415445      -0.42623238983166       1.48716476020979
H         3.08201794264492       1.15050599066115       0.76939575037949
H        -0.17075809301530      -1.50219216881856       1.53245063473649
H        -1.40259053853166      -0.23211678313232       1.62328494139093
H        -0.15973503671825       1.50380465664692      -1.52353571701994
H        -1.38000552497449       0.22353932670711      -1.63214382034177
H        -2.27506906956577      -2.47825978142619       0.89378069213212
H        -2.64941777386358      -1.18206254518571      -0.27989339807918
H        -1.32658520097255      -2.36371085115952      -0.62725256953879
H        -2.28234208321610       2.46166972191139      -0.91662061447496
H        -2.66193200480369       1.16333482314352       0.25303660245846
H        -1.35454789473877       2.35677077084346       0.61787011146375
N         4.08136240378701       4.12921114838786      -2.59186505209749
S         3.34431157309717       3.35400091525518      -3.83009844769330
S         5.71163127228625       4.14681273450557      -2.45306602068746
F         3.51243379539736       1.70003050779216      -3.63315630096026
F         6.36763433159709       5.07436660641130      -3.68345431569410
O         1.88489701554807       3.70853774767337      -3.84923689392233
O         3.97852908328874       3.75362328317558      -5.13275920331868
O         6.24770534989481       2.74702334726493      -2.56160262344572
O         6.09817110581288       4.73362956798933      -1.12559565841825
