43
C13H27NO2 optimized with ADF in AMS.
N        -1.99088462478333       0.06970321549236      -0.47558307011973
C        -2.01941179378265      -0.78014067207987      -1.72260467923636
C        -3.29748559893047      -0.28409440820558       0.21657394381629
C        -0.85268374871522      -0.33102665165610       0.45025436061978
C        -2.60906675797184      -2.11774906439021      -1.27843883318828
C        -3.46069827381731      -1.78538418934370      -0.02244586892457
C        -1.94085854935017       1.53557136797958      -0.84101854682279
C         0.54667410462522      -0.02447214508260      -0.04621306034288
C        -1.97358102458266       2.46957576165494       0.34810638102551
C         1.53884695670823      -0.37247729595055       1.07057592945882
C         2.97746494521411      -0.00600080676131       0.71955581796864
C         3.94581879934516      -0.29298495225304       1.86490328411095
H        -2.68452784142572      -0.26690478284227      -2.43421872390878
H        -1.00948248272905      -0.83593013659349      -2.15009068927126
H        -3.21319302665958       0.02550445645316       1.28612491784252
H        -4.07965695916549       0.29234582117872      -0.30355306703784
H        -1.01156037125075       0.21073862004169       1.41142926808416
H        -0.97867332280248      -1.40776965602370       0.63286035114474
H        -3.20887551736027      -2.55264765482824      -2.09108931249270
H        -1.81432894520767      -2.83861169685819      -1.03684228923786
H        -3.11342981653955      -2.35690298361970       0.85048384501926
H        -4.52199320145800      -2.02951319949972      -0.16981410581887
H        -2.81063460281674       1.69406651202094      -1.49881555530718
H        -1.03277815325655       1.67250140079321      -1.44790252177030
H         0.64659222087224       1.05364354691602      -0.25845644865907
H         0.81098652712315      -0.57215469458671      -0.97035925283211
H        -2.87489465138409       2.31660745068628       0.95903184893103
H        -1.11990734778585       2.32513210969897       1.02727999822183
H        -1.97125286716471       3.50322222940815      -0.03045450354670
H         1.47989503048865      -1.45392430441359       1.29686226678665
H         1.22016861096018       0.16097709979059       1.98327864175194
H         3.29393846289962      -0.55617766288624      -0.18610655347674
H         3.02071058171169       1.06888917531370       0.46458104024106
H         4.97880269797268      -0.02348072582322       1.59561657918155
H         3.66457878125220       0.28084893526115       2.76181947380637
H         3.93234135429996      -1.36159084438532       2.13402179681109
C        -1.82197674566161       1.49253972036585       5.01365846170586
C        -1.76488934679922       1.10845986137075       3.53019806583129
O        -2.83139500608174       0.65191236595087       3.01012115899133
O        -0.64494118132715       1.26587587205305       2.94992777677608
H        -2.85427537732710       1.68358307550483       5.33656568677817
H        -1.42214498533363       0.65773493279472       5.61168263763044
H        -1.18635360500252       2.36819250905382       5.20879634745866
