32
C10H15F3N2O2 optimized with DFTB in AMS.
N        -0.31357215439963      -0.73083114828804      -0.63728476630170
N         1.77857044292465      -0.60326623297147      -0.14211280910976
C        -1.75269633823406      -0.48536695684057      -0.65550806237278
C        -2.09164797124059       0.76261846479429      -1.48043837957104
C         0.56238770244454      -0.17572982811123       0.20123851048562
C         0.35921146652978      -1.48906386852027      -1.55559606295338
C         3.02820265151251      -0.17304688191804       0.47758148740158
C         1.68103152485081      -1.40820977264359      -1.24306519126419
C        -1.74624923971400       2.05619446271836      -0.75098418259082
C         3.53111537077039       1.11122281367634      -0.17346613343402
H        -2.09264310998273      -0.37893862205092       0.37950348228669
H        -2.22379500233933      -1.36777818694810      -1.09516957451350
H        -1.55181039112282       0.71866825612239      -2.43043070978262
H        -3.16437284894563       0.73325865224129      -1.69155834579309
H         0.32897278529543       0.46175637247262       1.03578560806053
H        -0.14417164743408      -1.99698674185646      -2.35750313667115
H         2.84038997601745      -0.02559444243905       1.54549366734019
H         3.75292137136680      -0.98174851554108       0.35170678957055
H         2.54444847029426      -1.83287939487534      -1.72120877490482
H        -0.68280344772794       2.09310837379036      -0.51692909263377
H        -2.31467013714167       2.14516715426433       0.17661986992583
H        -1.98074424329812       2.90548361271060      -1.39141395269562
H         3.66993472897365       0.96084586213486      -1.24365714095206
H         4.48242640787548       1.38817289739251       0.27847864157376
H         2.81457671814495       1.91744109626391      -0.02718882599915
C         1.31828113079238       0.76450975690279      -3.20269888607961
O         2.44189325604634       0.32836743119633      -2.96552640253389
O         0.26103921427265       0.19919525461909      -3.46996548087107
C         1.18076811588600       2.36519103613713      -2.99702745527935
F         1.24974734350522       2.63594020489826      -1.65770409394253
F         0.00326272966540       2.85909783473608      -3.40789960789878
F         2.14533696401187       3.08870823103260      -3.57587480839606
