50
C12H28F2N2O4S2 optimized with DFTB in AMS.
N         0.19710454414746       0.93128296498044      -0.19610109407161
C        -0.55915388084380       2.09880427992488       0.39929270918486
C        -0.72800460158780      -0.17737858204706      -0.60774489298092
C         1.13673367277707       0.40380912780209       0.85968372163248
C         0.94807133476606       1.41310465505793      -1.41040862630421
C        -1.63539222829999       1.73805136440235       1.42144632623464
C        -1.78284249405002       0.20531352190870      -1.64583046499005
C         2.06381122431567      -0.73036257583645       0.43030343904806
C         2.05690484198041       2.42546343608725      -1.13030001615914
C        -2.06068230094562       3.01359080592934       2.14950335943654
C        -2.75175940596759      -0.96227120246595      -1.83413322240704
C         3.03788713220476      -1.01496937534490       1.57588651418679
C         2.66350744721986       2.89305515205939      -2.45207988717833
H        -1.00422326989624       2.65556032235486      -0.42868723968787
H         0.18607556587593       2.73409585356883       0.88086455246252
H        -1.21078477215828      -0.54353378294921       0.30105123472271
H        -0.10605951083001      -0.97980441576932      -1.01060895749453
H         0.51785470835208       0.07093855717383       1.69427518616723
H         1.73432234064839       1.24881534083031       1.20353529393413
H         0.20981754927764       1.86494790835660      -2.07710517094257
H         1.36042571359814       0.53070062881723      -1.90658580544297
H        -2.50419246832937       1.28936170080695       0.93122661563211
H        -1.24998406528725       1.02798227690484       2.15511024907739
H        -2.34233246567871       1.08715165826303      -1.32709167908166
H        -1.30794251875665       0.43234242533616      -2.60371368725692
H         1.49364589528224      -1.63636408301565       0.20508832679355
H         2.63215572609792      -0.45418383482151      -0.46154651233801
H         1.66061911529243       3.28991232528424      -0.59528760908021
H         2.84412409160033       1.97952544929874      -0.51968626658620
H        -2.84322481737194       2.77899156815591       2.86988707086840
H        -1.21162375089387       3.44150238668797       2.68120657394411
H        -2.44300982032681       3.75075074912065       1.44262643779800
H        -3.49559040528060      -0.70271540813137      -2.58634912809402
H        -2.21814125305129      -1.85393039236355      -2.16435984423002
H        -3.26540524945832      -1.18819343911521      -0.89934926644784
H         3.69600676759744      -1.83884152637409       1.30266169026220
H         3.64248177994343      -0.13325500742030       1.78535574627411
H         2.49623284286472      -1.28112337830174       2.48318395657836
H         3.45925890815753       3.60694313158398      -2.24452609173738
H         3.08346104475313       2.05150390821895      -3.00461367615147
H         1.91025303076474       3.37975454471262      -3.07283624168852
N         3.04558131598509       2.21206398974207       2.76950520424246
S         2.07271751821626       1.90378993315862       3.98638604047019
S         2.92325019033928       3.64076682236026       2.08120165119278
F         0.57561557999278       1.87369527967280       3.26819555687930
F         3.42445873099865       4.69720040545459       3.17937300773818
O         2.27154712254747       0.53984809752790       4.35380381428155
O         1.94147865886072       2.90080576725568       4.99122072619995
O         1.58498798732792       4.06040184406119       1.76121774306599
O         3.89708075402855       3.68939597609511       1.03703141004293
