45
C13H18F6N2O4S2 optimized with ForceField in AMS.
N         2.36290979130926       0.02855937132220      -0.52360865175820
C        -1.45129553986746       0.04971973944298      -0.70440094918129
C        -0.05082775561714       0.02015119380125      -0.08379283834387
C        -2.52834344664582      -0.01140246759875       0.38485448198714
C         1.04029089225003       0.07512524140176      -1.15722193914112
C        -3.93311282822388       0.00570403643334      -0.22652515692989
C        -5.00440162927787      -0.05890484226758       0.85836344028169
C         2.94751038438274      -1.18082179921411      -0.26239848252245
C         2.97592617542024       1.19197744061421      -0.14548891926337
C         4.17362949004304      -1.24609085348897       0.40235882211060
C         4.20312918778688       1.16195960206795       0.51983544118221
C         4.79992497692704      -0.06622312398056       0.79908337577347
H        -1.56975674344904      -0.81870235913417      -1.38944528351760
H        -1.57488809829370       0.98508895305023      -1.29370703065198
H         0.06943665906660       0.88872358640691       0.60057204296247
H         0.07074811650722      -0.91256365883970       0.50987249441126
H        -2.39788250911492      -0.94272028845140       0.97948316257776
H        -2.41268789882367       0.86080977468715       1.06589685980517
H         0.93300187237706       1.00667977324755      -1.75706640317331
H         0.92210258251628      -0.77850175476731      -1.86179543564616
H        -4.07365171440577       0.93706631217916      -0.81736336818183
H        -4.05647839573069      -0.86503828528596      -0.90690343254800
H        -4.91833832590997       0.81567004480119       1.53803440563180
H        -6.01065891153706      -0.04690584951542       0.38924882491983
H        -4.89893119717769      -0.99366079622337       1.44948306531639
H         2.45945533643383      -2.10343566001446      -0.55402806637016
H         2.50992574003857       2.15026984865103      -0.34305235076062
H         4.63002695603625      -2.20443465265475       0.61361379967157
H         4.68247705578887       2.08370496388468       0.82310077207606
H         5.74516671600745      -0.10309497295974       1.32301889022600
N         9.24542877865788      -0.06983214981942      -1.58968271872564
S         8.93067136186936      -1.22271409846982      -0.46853115899948
S         8.40071627118860       1.33135107493132      -1.68530176775913
C         7.76178465722488      -2.38876760971292      -1.13743737965971
C         9.30274973060049       2.61746646301227      -0.84783342143797
O        10.20414587487447      -1.94803693467696      -0.13897398527068
O         8.36747238374133      -0.60675116776174       0.78170123591093
O         7.04483376170778       1.18288656530730      -1.05529359542115
O         8.24219682639016       1.71217741768484      -3.12961469204542
F         7.46291467592730      -3.34206920705405      -0.18270184116077
F         8.30987421786914      -3.00582090368209      -2.24601508674021
F         6.60447177130360      -1.73167885111126      -1.50816685005807
F         8.58463038200980       3.79653151888633      -0.90663272819768
F        10.52864455745613       2.79538636199377      -1.46079532733960
F         9.49830017326239       2.26509740737709       0.47428676216102
