44
C10H20F6N2O4S2 optimized with ForceField in AMS.
N         0.00322385461622      -0.00041590579434       0.00226572720936
C        -0.83992768463392      -0.25245940194868       1.22290083456063
C        -0.84791606068155       0.25157417246027      -1.21314134933220
C         0.85009342288147      -1.21785076712282      -0.25296215235094
C         0.85151667569569       1.21689116840820       0.25256672745151
C        -1.89917830286443      -1.36368928606238       1.08967079985453
C        -1.90923248865836       1.36150975682049      -1.07366644436503
C         1.90875103590430      -1.07944446907994      -1.36567369182548
C         1.91228632694160       1.07972841199047       1.36356678265917
H        -0.19981546081712      -0.54705274344738       2.08184223136146
H        -1.35839646648928       0.67747398423642       1.54479266205523
H        -0.21249584268802       0.54712699950848      -2.07546894611183
H        -1.36637392566815      -0.67884430478565      -1.53378350352602
H         1.36975805676799      -1.54076006747890       0.67584819729282
H         0.21163519225480      -2.07814933780767      -0.54794425095756
H         1.36920626643449       1.53727407162118      -0.67819851136863
H         0.21438551010496       2.07830292984964       0.54693739915773
H        -2.46490988737979      -1.43493935969914       2.04250258500394
H        -2.63378561891158      -1.14362450902625       0.29368295313915
H        -1.43598813916631      -2.35426807496985       0.91159810729018
H        -2.47700325596689       1.43242436096535      -2.02548896370998
H        -2.64441676158720       1.14469819430312      -0.27445078808398
H        -1.44501194672904       2.35236993382321      -0.89961446924221
H         2.47470765577883      -2.03205607229447      -1.43899873562152
H         1.44244535980124      -0.90334491675657      -2.35520457872283
H         2.64581647033079      -0.28164139211028      -1.14996251227663
H         2.48040184035732       2.03126246660134       1.43312893856685
H         1.44766948181481       0.90813260218949       2.35469736814378
H         2.64672515944355       0.27914510428519       1.14921827930219
N        -6.79556279411025      -3.93131215680865       0.01277004166583
S        -8.00783262852334      -3.92518265763703       1.11588608685215
S        -6.89667180155414      -3.14760586245418      -1.42366617189992
C        -9.06206601000586      -5.33279433522954       0.83443455687943
C        -6.05201714416956      -1.58606762313206      -1.29431450516637
O        -7.41972425614300      -4.02749220595104       2.49424715270217
O        -8.81722524997329      -2.66265807446782       1.00745346900654
O        -8.33171493860915      -2.91239805424716      -1.80591595502601
O        -6.22390191524995      -3.97351575854452      -2.48266275185899
F       -10.07468096988489      -5.34752071334745       1.77478680655447
F        -8.31945258031801      -6.49322485024150       0.94280372504488
F        -9.61305642084330      -5.25870519055621      -0.43050759739854
F        -6.15893010860397      -0.90058347330688      -2.48939672710744
F        -4.71872832899588      -1.80926162437322      -1.01374313782907
F        -6.61434773930183      -0.83318432778125      -0.28105498367279
