24
C6H9F3N2O3S optimized with DFTB in AMS.
N         1.06828713321815       0.09101564940233      -0.19466546475525
N        -1.05370854553218       0.33480228710904       0.05619360036699
C        -0.11085213742477      -0.51066089483201      -0.34748656275991
C         0.86803918546149       1.36437765355168       0.26383878121733
C        -0.47124109469282       1.51959153376123       0.42158049464682
C         2.32057786616518      -0.44384827099850      -0.70208211132654
C        -2.48177005652221       0.13676367620823      -0.11856581277240
H        -0.26983335312626      -1.50947304656611      -0.71254659863675
H         1.68248098377635       2.04827591821086       0.42454706688844
H        -1.05227951186799       2.36586926442440       0.74186420532592
H         2.51805033254423      -1.41371099919767      -0.24609867294423
H         2.22023051717771      -0.55346966200455      -1.78401534171613
H         3.12282827700552       0.25236407905144      -0.46887031431925
H        -3.01293956614173       0.56017812434487       0.73252737033987
H        -2.77684708458177       0.64682591135754      -1.03883442943908
H        -2.68769311960613      -0.92853819979135      -0.20150584777120
S        -0.44388335032145       0.79152170420586      -3.37021485156303
O         0.13044253280278      -0.43513826785875      -2.81093668120824
O        -1.21808603762320       1.55646628808367      -2.40372163983275
O        -1.03122237779854       0.64941224612892      -4.67333193775059
C         1.06752531434685       1.84431919171292      -3.61269513670756
F         1.91028751277437       1.30588782913239      -4.48516328026382
F         1.72089011225537       1.94590376790355      -2.43759840412072
F         0.77095553411106       3.07200733956002      -4.01215762499793
