55
C15H25F6N3O4S2 optimized with ADF in AMS.
N         2.64190313650921       1.96313243933289       0.80500626740522
N         0.72142814541870       2.91069193099259       0.46069071636693
C         3.85349986264993       1.17015239026718       0.57342102350141
C        -0.45101700824377       3.44370264398439      -0.24285321272733
C         3.62058324712025      -0.30779704059125       0.88177698546498
C        -1.24311044825804       2.32926157544148      -0.92065904448162
C         2.51388863670475      -0.94739380453083       0.04708483818194
C        -1.70179040268749       1.22807319150108       0.03405858831420
C         1.74197550614550       2.28164533834131      -0.13300202999441
C         2.19516392869115       2.42687531264419       2.02520337096307
C         0.99138566365079       3.03092110900298       1.80395685690466
C         2.30645896733212      -2.42898091479412       0.36167965457063
C        -2.47522268325239       0.11390346670245      -0.67062717304986
C         1.17011992292839      -3.04454680764963      -0.45092044245776
C        -2.87267578496305      -1.02061789280553       0.27052771464107
H         4.64393608927859       1.59943175526645       1.20460854546069
H         4.14238262568088       1.34367614318836      -0.47313845240401
H        -0.08496154085420       4.20159596967159      -0.95170292984512
H        -1.05267369058799       3.96488662031925       0.51421707528478
H         3.39246420862736      -0.42761013467659       1.95658778532636
H         4.57691615211721      -0.83055200735243       0.70216494428884
H        -2.11573041027220       2.79696196172364      -1.40985677544282
H        -0.63927828703374       1.88827700046882      -1.73478121573869
H         2.74702988272602      -0.82767849703401      -1.02823177863087
H         1.56068393413902      -0.41585328197743       0.22505721949756
H        -2.33125018322084       1.66887438836980       0.83054298411089
H        -0.82335242946782       0.78790489672017       0.54226637607852
H         1.86413688817706       2.11310457212095      -1.19476450638076
H         2.77927190366489       2.31424054598427       2.92982327391258
H         0.33353640647220       3.57368798853241       2.46986392283347
H         2.09722603934206      -2.54219582676987       1.44106121326987
H         3.24550349000049      -2.97875239544331       0.16839228861293
H        -3.37867692885691       0.54060563799964      -1.14345137543220
H        -1.85721046473005      -0.28815180162178      -1.49434681636722
H         1.37564029485784      -2.97757088166973      -1.53139346234958
H         0.21963369821121      -2.52203511087283      -0.25680837894116
H         1.02557109791753      -4.10742066920902      -0.20205160362255
H        -3.50592408050402      -0.65208249250546       1.09340887732401
H        -1.98236531536845      -1.49077472655263       0.71868065475539
H        -3.43486793161672      -1.80494585037614      -0.26000410338556
N         2.65747668275958       4.94445342898931      -0.53908362946066
S         2.23814018144400       6.31046767586954       0.21785343404107
S         4.07468026591822       4.71297164005682      -1.26879405592961
C         1.75694099244240       7.54764011342224      -1.14133138146900
C         5.39383409592073       4.60045618925786       0.11392829338739
O         0.95631008400532       6.02261812668655       0.86435387720905
O         3.30651671100862       6.96505633713365       0.96022948696035
O         4.54477427611494       5.78880510006094      -2.12665688663901
O         4.02429340009522       3.33740165674059      -1.78011251734301
F         0.94164643287480       8.48827781339314      -0.60215461545854
F         1.07979930289495       6.91934692104513      -2.13831242839084
F         2.83237157661621       8.16088993310494      -1.66419010233871
F         6.34335962035031       3.70122746499295      -0.26280554765900
F         4.84716769729615       4.15406208551748       1.28175443171025
F         5.99175662161312       5.77830562418556       0.34101317046180
