25
C7H16ClN optimized with ADF in AMS.
N         0.82347533842074      -0.10752095115807       0.04137380758108
C        -0.02063392182780       0.98671540936455      -0.60367692640987
C         0.07213232494193      -1.43484093823817      -0.00860416760963
C        -1.41093507903515       1.08362097140272      -0.00162376724415
C        -1.32016177186554      -1.34305256440603       0.58976559861689
C        -2.13576228686081      -0.25762413670785      -0.11315935741015
C         1.18295137240839       0.24960980419702       1.43999794592661
C         2.07329884128738      -0.26035433728922      -0.77650539601557
H        -0.08563958463023       0.68082195293026      -1.67287349010659
H         0.55693398113571       1.91841045258118      -0.49574696237783
H         0.71145646990180      -2.16525340412084       0.51196220079895
H         0.00791830629739      -1.66562343924043      -1.09677949142186
H        -1.94768312078609       1.86200006469548      -0.57019063129770
H        -1.38456725610842       1.42575547560404       1.04962569292491
H        -1.29202558782729      -1.16351413351757       1.68066499542952
H        -1.78936014313917      -2.33149723111633       0.44801221706580
H        -3.14561883079469      -0.18962873403676       0.32285049744192
H        -2.23136770773941      -0.52138907243732      -1.18156955143906
H         0.27663645960774       0.35558426288778       2.04359427176155
H         1.81411709698076      -0.54697628804230       1.85378035259106
H         1.73648511986749       1.19696366314442       1.42901581867620
H         1.74913541685681      -0.52434566858605      -1.80528993431981
H         2.61647372241503       0.69349721565688      -0.75657098839934
H         2.68195748196569      -1.05675568439557      -0.32868758626131
Cl       -0.04532790917227      -0.96192050377182      -3.26795918260165
