38
C10H22BF4N optimized with ForceField in AMS.
N        -0.56452830064825       0.30764220440507       0.15705946713877
C        -1.56253210124233       1.24015469948721      -0.45876476831878
C        -0.89819613464970      -1.10931126334307      -0.18600744128055
C         0.77144809695331       0.67092762329640      -0.42351088135597
C        -3.03138738216969       0.89088138735330      -0.15399190398643
C        -2.34874650549399      -1.49851048515267       0.14802056724533
C        -3.33603566850466      -0.55486395382510      -0.52861731390736
C        -0.53332415407421       0.50305231148305       1.63306204258472
C         1.97775887477646      -0.15079515640578       0.09453840795240
C         3.27680699114141       0.32869766606533      -0.56636997666193
C         4.47894716784962      -0.46790420034133      -0.06845554207712
H        -1.45708835233273       1.24124058497920      -1.56902187827160
H        -1.37760916678240       2.28674054046084      -0.12460763856289
H        -0.23978935149793      -1.81700339606780       0.36246166170721
H        -0.73693891248095      -1.29143532118215      -1.27356533776897
H         0.98701069482200       1.74754015146989      -0.22820033682309
H         0.74687311976018       0.55834018876841      -1.53259386116984
H        -3.68924138629620       1.56080693059180      -0.74964411923258
H        -3.27565379020991       1.07230822612977       0.91316215662683
H        -2.51055350992654      -1.49784372216989       1.24689552359471
H        -2.53615488591176      -2.53380760633103      -0.21126315322235
H        -4.37004056969518      -0.80976198508318      -0.21081428604119
H        -3.27294492965223      -0.67693013764727      -1.63306781630287
H        -1.53686599957648       0.42024351512741       2.09254279013903
H         0.08824830098562      -0.26813894895060       2.13538835387686
H        -0.13284008929980       1.50757155090054       1.89604565882635
H         1.84505230823921      -1.22579271652718      -0.14614111133993
H         2.08755550969416      -0.03290459730308       1.19234836121942
H         3.44006818262994       1.40439129529116      -0.33614549331939
H         3.20249535047672       0.21273224963680      -1.66999593938786
H         4.35268664240141      -1.54658146504339      -0.30237476441403
H         4.59987866311033      -0.34093228290120       1.02870240636760
H         5.39639728026509      -0.10032275482096      -0.57287281671411
B         9.13137242455942       0.08022830096469      -0.00502125075747
F         9.98086627727273       0.01824306182400       1.13137688966728
F         7.86350258547699      -0.46698982944383       0.32380025833360
F         9.70708979847381      -0.66497489861215      -1.06821119999783
F         8.97432111985654       1.43370467021680      -0.40612208716597
