23
C7H13ClN2 optimized with ForceField in AMS.
N         0.07923753080456      -0.63224508117651      -0.43277351651830
N        -1.97879725288091       0.12383415422569      -0.06839706038150
C         1.45040965092984      -0.72688908128466      -0.92915362369811
C         2.46249523290202      -0.41158780741786       0.17943740914952
C        -0.81810112554653       0.33115300998287      -0.71946691832103
C        -0.53647364817614      -1.47714483270433       0.41915489424266
C        -1.81424409916805      -1.00784027674020       0.64433208657386
C         2.31061425350786       1.01551916044439       0.70597584798019
C        -3.16507574497464       0.96884170980866      -0.09509996813811
H         1.60002523465078      -0.02362567499674      -1.77775889102719
H         1.62998501178092      -1.75481094787780      -1.31238329973386
H         2.34150907550656      -1.12965325506962       1.01870705747744
H         3.48815552732358      -0.53412102914419      -0.23019404491690
H        -0.62339308918921       1.17373093147184      -1.37123398399310
H        -0.08927681334898      -2.36306325200322       0.85116547488475
H        -2.56117227864883      -1.45299098126431       1.28854335133619
H         1.33062533052146       1.14010427950664       1.21334532920419
H         2.38701528504218       1.74606691711799      -0.12695456916972
H         3.11416872025248       1.22949831768296       1.44187476039361
H        -2.99216711556246       1.86274714726501      -0.73141170106260
H        -4.02266184592375       0.39485929928663      -0.50350599180123
H        -3.40538801952570       1.30610156552570       0.93493163372636
Cl       -2.13814184577704       2.34258069796105      -3.85543867040712
