38
C8H20F2N2O4S2 optimized with DFTB in AMS.
N         0.36543995278295      -0.05112573827025      -0.10741004354492
C        -0.59895717210577      -0.19504774997982       1.03747079508300
C        -0.31876429501375       0.47075795171687      -1.34516867047081
C         0.95036112579315      -1.40683619616242      -0.42422654102368
C         1.44048920876508       0.92422488621252       0.30089839693126
C        -1.86073687426083      -0.99187272893675       0.73759122636447
C        -0.94293176877189       1.84970693427490      -1.20426831347386
C         2.07151096679091      -1.41501682342909      -1.45250350634554
C         2.32941040519288       0.46916079904431       1.44576529837773
H        -0.05310724237382      -0.67864861603797       1.85038648065133
H        -0.87004306144201       0.81286042382838       1.35977894780493
H         0.44006304813914       0.51028480115826      -2.12718588595832
H        -1.07251282158628      -0.26605877262570      -1.63066250919622
H         1.30709960727445      -1.82549281451769       0.51985380398203
H         0.12462178537151      -2.02665050282565      -0.78224846716982
H         2.04644559408303       1.11332989503492      -0.58360527450933
H         0.93862252654572       1.85258053235207       0.57810308450483
H        -2.42489074715076      -1.07012405124055       1.66709321605411
H        -2.49042902368764      -0.49568260055559       0.00176780129453
H        -1.63467011516454      -1.99893507407702       0.39209138151352
H        -1.48206146677071       2.05465134892684      -2.12920272687095
H        -1.64840552968809       1.90764704349184      -0.37677355511287
H        -0.18096726739546       2.61796504849962      -1.08559424210099
H         2.41935798975587      -2.44451063655183      -1.53912238269871
H         1.72972867453660      -1.08682525369372      -2.43112481480760
H         2.91315565506946      -0.79466913723920      -1.15620942221886
H         3.05456637799335       1.26577104710917       1.61073353219349
H         1.77278406570067       0.31037769117074       2.36854653859284
H         2.88469503356745      -0.43230187983609       1.19689690228581
N         4.32036162769909       2.57390759674798      -2.77179658183689
S         4.94570359251144       1.41811520342549      -1.87107024638236
S         2.75696900150133       2.54590565289902      -2.96737395832909
F         4.74566397785120       0.07519856598433      -2.76349279902302
F         2.15259400016670       3.11893129454499      -1.53403243773620
O         6.35141898479393       1.61134941331516      -1.80771549173798
O         4.23867625474721       1.10222681886881      -0.65709604675766
O         2.13078951820262       1.24991590233046      -3.05075695113592
O         2.37973811427583       3.54456886024261      -3.90587915999229
