31
C7H16F6NP optimized with DFTB in AMS.
N         0.55094769016613      -0.03600120790023       0.34530032097588
C        -0.36668359381902      -0.96592396978653      -0.37993569020330
C        -0.34877161958237       0.67407419305548       1.30962113637290
C        -1.67557002867327      -0.19390272813845      -0.54276746819696
C        -1.66069224891039       0.87937851241302       0.55892852657324
C         1.61839497897351      -0.76975008081078       1.10811620634035
C         1.14419239268058       0.94776048665557      -0.60247281786221
C         2.61772109405416      -1.49303193400904       0.22223190343908
H        -0.50761686428514      -1.85139180170313       0.24405503065004
H         0.08096216856515      -1.25956477975228      -1.32929194782804
H         0.12955531229989       1.59941695456824       1.62845502433001
H        -0.48870002194195       0.02173194831293       2.17409610822474
H        -2.52558838428108      -0.86950183664107      -0.43460761735141
H        -1.73224685109403       0.26657651962337      -1.53108626755237
H        -1.70921333112614       1.87932883538487       0.12385559999265
H        -2.50542722527530       0.76533684137250       1.23996730763954
H         2.13069098211879      -0.02888585583085       1.72334065936277
H         1.10246044129147      -1.48000250768981       1.75986061343227
H         1.70623031619069       0.41536425532480      -1.36552981155181
H         0.34434669450814       1.51900515288559      -1.06744263165120
H         1.80514656991222       1.60898011816943      -0.04785868566535
H         3.25775661974023      -2.08953939357264       0.87158492701879
H         2.12697204542626      -2.15726603034053      -0.48893024105908
H         3.24943348473521      -0.78712270575166      -0.31306494675573
P         3.75520541432084       2.18635333499637       2.08566384971017
F         3.61324729051492       0.78886190967887       2.96891895190396
F         5.37291849715906       2.10956775224071       2.16213502364015
F         3.76873401294439       1.23958065255358       0.69065765519947
F         3.80040856786630       3.52288458286591       1.14850576576576
F         2.05579023418228       2.20507964998018       1.96793998029789
F         3.65945881653847       3.07759018784557       3.43986834400782
