36
C8H18F2N2O4S2 optimized with ADF in AMS.
N         1.21372043077345       0.18647102187238       0.13964530190910
C         0.70612591045293       1.08132804744867      -0.98540609288799
C         0.75948900999747      -1.24374863777991      -0.10580750892875
C        -0.79472024315121       0.99273463871294      -1.18781012861457
C        -0.74003749645642      -1.35654420417416      -0.33156971915476
C         2.73988822364340       0.27214121607318       0.11462119943947
C        -1.20819884050756      -0.45128844570580      -1.46902775254428
C         0.71237217066106       0.67050922819088       1.45945618089884
C         3.46416843717830      -0.74333077434824       0.97098207031524
H         1.22258335658067       0.73941840613230      -1.89239391421894
H         1.05114668040372       2.09918311129929      -0.75063711087170
H         1.08158527570906      -1.82909150922067       0.76564354754153
H         1.31395901063956      -1.59286036039881      -0.98742318840410
H        -1.03277942451708       1.63986073353946      -2.04850566304305
H        -1.34870543966392       1.40338417034828      -0.32514414319763
H        -1.29769735088447      -1.13491797473627       0.59614436840976
H        -0.94131079575248      -2.41457268736499      -0.56778197194801
H         3.04445399002373       0.15515314135480      -0.93423559612675
H         2.97297925969533       1.30541799651476       0.41659444306546
H        -2.29993576006761      -0.52512916305663      -1.59379864960547
H        -0.73704405294092      -0.78173203440326      -2.41042358023956
H        -0.37916378702330       0.60469079135023       1.49024159399864
H         1.14001961048167       0.04518188287197       2.25148204908149
H         1.02505215058422       1.71398703136826       1.59147839860163
H         4.53757761693562      -0.51299830592498       0.89195625178799
H         3.19502862344945      -0.69954879630855       2.03645038001090
H         3.33519150591473      -1.76367065893305       0.58670638999540
N         4.10770690754848      -0.37516191093528      -2.91599724494088
S         4.13264934308808       1.00861581903892      -3.76039198328160
S         2.97578138024880      -1.47567882695326      -3.17794058684126
F         3.04144828990279       1.93736694461534      -2.86261564605534
F         3.41497138804511      -2.19982595580010      -4.57649018690376
O         5.39770697615294       1.66035608948608      -3.50593780417290
O         3.53622188704343       0.96071452024997      -5.07825343674256
O         1.63057997735546      -0.96657337111653      -3.43633691368195
O         3.13182415005551      -2.50444307490723      -2.15850803274962
