38
C10H22BF4N optimized with ForceField in AMS.
N        -1.45241227791724       0.40470360105173      -0.08802797531592
C        -1.76455854140995      -0.86789391703520      -0.80309640838672
C        -2.54605587950982       0.58652714277962       0.90808927008153
C        -0.14348774285287       0.32471995277410       0.63151534228435
C        -3.01521229098827      -1.47333452840951      -0.18397632540184
C        -3.69109732101758      -0.32425620684246       0.51509269270982
C        -1.46743462834479       1.54972552625416      -1.03590723500688
C         1.09842742782282       0.29539979703280      -0.28998614918247
C         2.35626633349503      -0.09188947497303       0.49759881328238
C         3.59755455495261      -0.06703586215016      -0.40203586509429
C         4.85254283858989      -0.45281255217845       0.37534759212040
H        -0.94292124016366      -1.61532161843729      -0.74305332680927
H        -1.95829229279826      -0.70374115832473      -1.88867262494287
H        -2.90037487118729       1.64055128006296       0.98311012171803
H        -2.22895793333934       0.29132950785341       1.93497639323920
H        -0.13171368864404      -0.58562720961663       1.27572343426328
H        -0.03428646377015       1.19785960225454       1.31557784715284
H        -2.72797175793600      -2.24679596128296       0.56288453908709
H        -3.67864336651885      -1.92875095136074      -0.95088451468681
H        -4.36973065532210       0.20269426234379      -0.19099907177547
H        -4.26611127294301      -0.66897060338989       1.40236327159783
H        -0.78262777305340       1.37521983405090      -1.89449543234424
H        -2.48517247378042       1.70181526233662      -1.46050798261542
H        -1.15996064459199       2.49077592342074      -0.52753345760000
H         0.95712155273696      -0.42610179381967      -1.12138572400143
H         1.25388052479556       1.30569531880766      -0.72739025670409
H         2.22843808032627      -1.11438532723668       0.91726272765246
H         2.49741842449170       0.62006290242878       1.34055503247011
H         3.73534430783197       0.95292244864523      -0.82190839039413
H         3.46351879974478      -0.77961359663848      -1.24469674223528
H         5.02264652669126       0.25765138967827       1.21217877035575
H         5.73200907041725      -0.42043275456827      -0.30197016469483
H         4.75424211531722      -1.48206624435609       0.78130784568230
B        -1.50047679743331      -0.66990084340782       5.24038957011865
F        -2.88464194854314      -0.78194312375120       4.94162321664533
F        -0.93333841599320      -1.96733824219637       5.35051123056793
F        -1.33578209411503       0.02434538267728       6.46852675907587
F        -0.84698332843960       0.04530133622303       4.20226251008681
