43
C13H27NO2 optimized with ForceField in AMS.
N        -0.83928029853296      -0.20326236666547       0.02993917757652
C        -1.17820007800241      -1.24294879948374      -0.99066995598007
C        -1.97453576262518      -0.23171631195889       1.00260001764362
C         0.43164446854971      -0.56874152517212       0.73784028551241
C        -2.60163285879755      -1.70694212954879      -0.74685763762990
C        -2.81168587193915      -1.46356681579279       0.72055119099372
C        -0.76088359969696       1.13977163444343      -0.63255049023008
C         1.69612072452714      -0.54307903169829      -0.15480734915571
C        -0.39603420644221       2.30429367929438       0.31867777106992
C         2.90966860370466      -1.09011049833392       0.60716779208746
C        -0.48639321584537       3.64596355207547      -0.40347453254031
C         4.16991087317489      -1.04645850918463      -0.25147893194375
H        -1.07607463966853      -0.88144481078298      -2.03960647024753
H        -0.52767691129223      -2.14360067084686      -0.90853672232239
H        -1.64459012658454      -0.23513694421647       2.06683548361197
H        -2.64902948721303       0.64806445785409       0.88908252020603
H         0.33092127770892      -1.58806873646363       1.17874351475646
H         0.60483148047701       0.10704997069241       1.60423982762671
H        -3.30897806940878      -1.08479150282367      -1.33909323383132
H        -2.73970331064745      -2.77947919796986      -1.00584225526207
H        -2.42529540161882      -2.32620038153510       1.30746082593612
H        -3.88576974678716      -1.29989959915611       0.95750404360043
H        -0.02252508768468       1.12299098053409      -1.46427785795889
H        -1.73851833911871       1.37317363401838      -1.11588476521860
H         1.54282963650101      -1.15081916876512      -1.07081326741873
H         1.92324907519713       0.49858421924696      -0.46290248264656
H        -1.07787949812313       2.33071082054408       1.19374144805191
H         0.64291439823614       2.19304351776260       0.69138608635644
H         3.07880829760628      -0.48279078731014       1.52266765524008
H         2.71942637201029      -2.14196144274628       0.91201045497831
H         0.22006877623371       3.66902653545399      -1.26021898095430
H        -1.51901916891455       3.81685808964710      -0.77492832361292
H        -0.22127727914100       4.46538892611528       0.29726934420065
H         5.03659966528203      -1.41107342363092       0.34045076584009
H         4.05144778868707      -1.69518640915908      -1.14492918832562
H         4.37636722697907      -0.00589808683903      -0.57953724233400
C         8.88697071912769      -0.43126885061863      -0.23495783339787
C         7.77341503569844       0.16288385401544      -1.03713472957892
O         6.97409466557071       0.91740968340789      -0.50781019162635
O         7.65615299068195      -0.11151386066335      -2.22022888923813
H         9.20842183318986       0.27842599688683       0.55646724811727
H         8.54034838134540      -1.37341089679281       0.23867208669470
H         9.75769752439531      -0.65001317083373      -0.88877751524683
