67
C19H28F18NP optimized with DFTB in AMS.
N        -1.89540014103580      -0.94623087547215       0.55885978986594
C        -3.02067866096641      -0.10897112375665       0.02314640844749
C        -2.09779990015395      -2.36961573147216       0.11312184835354
C        -0.62814151377771      -0.42055312140610      -0.06598680254494
C        -1.82487588011043      -0.89471940560019       2.06111194385784
C        -4.39770211635384      -0.62282932856007       0.42778670034171
C        -3.45770716236692      -2.93230418431284       0.50077949648183
C        -4.59122939874780      -2.06530454571653      -0.03761641037792
C         0.65543994253831      -1.14430323721324       0.33612452721993
C        -1.49640667283091       0.46863118265544       2.64657676203697
C         1.85022568963315      -0.38714552513129      -0.25808236156674
C         3.17092277645268      -1.08330316008631       0.08311641677407
C         4.36929701155711      -0.28165631655794      -0.43312964168674
C         5.68482513568705      -0.98489192381865      -0.10341661963012
H        -2.93047655470586      -0.12394497288863      -1.06684410766752
H        -2.87062192574172       0.91558951290548       0.36867463181093
H        -1.30807877555120      -2.96794696881298       0.56261309090800
H        -1.98063495109483      -2.37918276804747      -0.97398227810536
H        -0.56196795155743       0.63878482615018       0.19486528687764
H        -0.76384207430106      -0.49323263267310      -1.14867386535288
H        -2.78815673004609      -1.23301421479826       2.44143878853700
H        -1.07182899095076      -1.62022143827967       2.36630990246079
H        -5.13905684365494       0.02796939506869      -0.04378561745576
H        -4.53442017256295      -0.55142990974951       1.50974303987783
H        -3.53603839914045      -3.03000021829751       1.58498313763644
H        -3.51725703193059      -3.93811985709504       0.07907309316201
H        -5.55101137954930      -2.44229535364764       0.32208699176474
H        -4.59954774420238      -2.09801547791709      -1.13215840193326
H         0.76033966922099      -1.18413965731294       1.42162789413924
H         0.64822726608945      -2.17013923533562      -0.03797036207786
H        -0.49528841725137       0.79929051910450       2.37598105912258
H        -2.21625583392375       1.23037900511621       2.35046604466332
H        -1.53567583848459       0.36807650740903       3.73123852484556
H         1.86040284424367       0.63545568802676       0.13641917744856
H         1.73806043420710      -0.32392083442773      -1.34616652207499
H         3.17952360088892      -2.08068823033409      -0.36491692484229
H         3.24891982573758      -1.20327375884912       1.16832038058400
H         4.28421073168868      -0.15656185041234      -1.51820932761953
H         4.36485667435807       0.71612504189524       0.01958981180962
H         5.71437568875067      -1.97326805965224      -0.56345817630286
H         6.52554031740689      -0.40088316558157      -0.47847183966380
H         5.79519572676780      -1.10126293390236       0.97537789528173
P        -0.41293075537603      -5.05194525497564       2.65676728718826
F        -1.79674525923851      -4.89842931093201       1.69138537453353
F         0.01297791207913      -3.40949617132050       2.35090560198171
F        -0.83313788005368      -6.63146894178260       2.96874973207014
C        -1.61144511716461      -4.35899990554759       4.05956854583952
C         0.48498438739665      -5.50250901521269       0.92816972100654
C         1.24964718609461      -5.33272828337711       3.73091078226293
C        -2.73648482287117      -5.26849345309340       4.61883075275587
C         1.97195828993268      -5.19719467360566       0.57634361978294
C         1.36290488612712      -5.42799854409630       5.27903953304974
F        -2.26863454956921      -3.27967345387417       3.55008159136947
F        -0.90622849763522      -3.89348927398636       5.10326259074833
F        -0.16250853797570      -4.76350442731589      -0.01808003991149
F         0.26881331071796      -6.78826834982803       0.62999243373868
F         2.16291449511833      -4.41529806064822       3.35253746443804
F         1.67885078114084      -6.52900678232224       3.27339306781185
F        -3.47273611786026      -4.58173449361170       5.49992124286139
F        -2.26156303652864      -6.34165609742756       5.23365562439946
F        -3.54813443280691      -5.66266779897665       3.64014216808522
F         2.14428224697659      -5.40996322176628      -0.73393455214479
F         2.24060184054365      -3.90424260876868       0.79590303642770
F         2.86841688910019      -5.92783207848060       1.21440696930545
F         1.46642173673556      -4.22192267234368       5.83039640463040
F         2.45449368712629      -6.11607426456234       5.61161457288784
F         0.31359581305528      -6.05248959135663       5.80756518467453
