36
C10H12F6N2O4S2 optimized with ADF in AMS.
N         0.38181016658433       0.68980772490887      -1.02168099032285
C         1.79590850473308       0.68159672550638      -0.57579018452123
C         1.96132884324710      -0.10290359644723       0.71924018840861
C         3.42393903838743      -0.10356862528616       1.15707768722840
C        -0.39061127953842       1.77222811206266      -0.80064571722055
C        -0.10364513916479      -0.39244891265916      -1.66581567325127
C        -1.71251008000944       1.78407106293485      -1.20193507824691
C        -1.41861380553647      -0.42813053452835      -2.08608285770351
C        -2.23711884000510       0.67184498011172      -1.85301012936756
H         2.37573337781492       0.25972435094022      -1.40813933071355
H         2.10041097249870       1.73076913944957      -0.47201934375074
H         1.60941174202261      -1.13922272693597       0.57074962293984
H         1.32333496252194       0.34351937205523       1.50277327393514
H         4.06501390499003      -0.55878874031074       0.38706274741709
H         3.55132193345010      -0.67387516000570       2.08826862165645
H         3.78441307962526       0.92118447944583       1.33267437235528
H         0.09635692085618       2.62101073200787      -0.32777632562172
H         0.59981887276828      -1.20022959055983      -1.84640114254241
H        -2.31090959184702       2.67743651320842      -1.02602504537438
H        -1.77844874887918      -1.30443449773664      -2.62336234818122
H        -3.27289215666724       0.67095220890325      -2.19594696371106
N         2.19077305750992       2.44020408247254      -4.88395384320479
S         2.31943896090251       3.39316255720587      -3.59881573824906
S         1.62306655334008       0.94650630481019      -4.88701576591939
C         4.07751795301112       3.03862648974430      -3.01419247636531
C        -0.21330972282787       1.21434068985813      -5.23190548886631
O         2.35987215736170       4.77453899464297      -4.04432713778124
O         1.49910165758821       3.04024735557659      -2.43127587039539
O         1.62846540941112       0.23718576278714      -3.59853124186739
O         2.09958515996671       0.25180505440878      -6.06958092769874
F         4.37209075711822       3.83890950520558      -1.95533393751010
F         4.97507207808371       3.26349385287102      -3.99115708367432
F         4.19999928199467       1.74542328062066      -2.60186781271922
F        -0.86518861189114       0.01489481800301      -5.20103272745600
F        -0.40830129082351       1.77353881144562      -6.43977895890639
F        -0.78088577269771       2.01393195478251      -4.28838617449822
