51
C13H24F6N2O4S2 optimized with DFTB in AMS.
N         2.97113628091087       0.07663022031757       0.25273942153046
C         3.04597937841896      -1.42244558457403       0.41175121048433
C         4.07639192021397       0.42703822012774      -0.70646469046689
C         1.66269195152944       0.49070731329869      -0.35585517815830
C         3.90756103756292      -1.95332885201921      -0.73621794175694
C         4.15845454077791      -0.75656973223570      -1.65363486839536
C         3.18193684845959       0.76956343882904       1.55201844191929
C         0.45083479405770       0.31010131188210       0.55726028887467
C        -0.83431228876351       0.55084530300779      -0.24436135197750
C        -2.07167488018724       0.40308247405025       0.64632988892424
C        -3.35840627196265       0.64198412116580      -0.15012770173555
C        -4.59431579325032       0.49581041952606       0.73550413450568
H         2.03553487217660      -1.83041466712753       0.39437053529370
H         3.50003088409417      -1.63840682821097       1.37935327540590
H         5.00012555932967       0.50982564302577      -0.13412378777820
H         3.85664578056481       1.37938402381052      -1.18791934829968
H         1.53683725810082      -0.09689607365039      -1.26866047461178
H         1.75676070408112       1.54482332441660      -0.63026316544350
H         3.40721672613100      -2.76874609114303      -1.26024127752013
H         4.85626774349604      -2.31970245783141      -0.33861549639477
H         5.14368880150514      -0.80461781540215      -2.11796386146785
H         3.40034968920163      -0.68833326911598      -2.43833989610019
H         2.46199053404429       0.40132894693139       2.27857440109473
H         4.19305394646956       0.56715812826806       1.90527251478881
H         3.05797703490493       1.84013267979156       1.40108343614503
H         0.42897270433124      -0.69806567701475       0.97919897903801
H         0.49491965939001       1.02243915436259       1.38512397278364
H        -0.88791390817819      -0.16671331291732      -1.07004979508985
H        -0.80988253488310       1.55703748369886      -0.67585671709542
H        -2.01269567115992       1.12065043675432       1.47157312188622
H        -2.08946059909895      -0.60295597564855       1.07895022203047
H        -3.33618859947485       1.64781572918946      -0.58280847328365
H        -3.41345518277342      -0.07607660765787      -0.97527775518723
H        -4.56658764864655       1.21769487072613       1.55268313497161
H        -5.49587483616542       0.66991734227674       0.14826778864862
H        -4.64400652573421      -0.50770085754565       1.16003012900606
N         6.20359807023323       0.51318295606482       2.77439457117476
S         7.31838831544952       1.63401194555756       2.45319527457907
S         6.37576737436393      -0.90636231372764       2.05521311395329
C         6.73207357896189       2.49403280051078       0.88911291809016
C         7.91110742863156      -1.79377661510383       2.68709558906735
O         7.18141316407313       2.65930200937514       3.44730901088000
O         8.62312844930998       1.12101498517711       2.13546992032217
O         6.53972007015246      -0.84516872613746       0.60907429277998
O         5.26929486356026      -1.71792300224722       2.52863464873084
F         7.23249387313655       3.71168693046077       0.81333935448761
F         5.38980017842858       2.59758324855537       0.92110376702702
F         7.04778070500721       1.83037376689565      -0.21222860865108
F         7.60785705124575      -3.07504401530814       2.82852374786681
F         8.27162803314794      -1.30638258718635       3.85753113060549
F         8.90085082712397      -1.68226017324908       1.82862007771782
