54
C16H36ClN optimized with ADF in AMS.
N         0.00026628044498      -0.05532583946451      -0.05393377298445
C         0.87319311223665      -1.07408632852716       0.65783643912336
C        -0.84370017532185       0.66210293802890       0.99610208396868
C        -0.86022144550077      -0.76567422144461      -1.06967988160607
C         0.84996225643915       0.98619621361452      -0.77033129120539
C         1.95275892522343      -0.50473342908819       1.55717427356863
C        -1.90968668591211       1.59233983154448       0.44738181226440
C        -1.82934436726341      -1.78950039990679      -0.50974076312324
C         1.89306340974721       0.43949491776381      -1.72577194104825
C         2.63581915310860      -1.64012148057740       2.31998604231242
C        -2.41229796968156       2.48671939903900       1.58513180050819
C        -2.68156174155936      -2.37192708045447      -1.63678944822321
C         2.73835110884810       1.60587266614831      -2.24591999219945
C         3.73931207512041      -1.11673191786369       3.23628008367548
C        -3.49627120688417       3.45090452954779       1.11519579236236
C        -3.66829463774694      -3.41548803420217      -1.12411202928807
C         3.82923798946447       1.14155627571497      -3.20477011535466
H         1.30605642903916      -1.71575097274473      -0.12662469264784
H         0.18176736532391      -1.69128805095111       1.25074070008384
H        -0.11837377843586       1.27391975442627       1.58071136083938
H        -1.28500453316472      -0.12261723358003       1.62898037687432
H        -0.17103714141183      -1.24299998080982      -1.78188872403039
H        -1.40786352359676       0.02296795839582      -1.60794557084625
H         1.29050614507586       1.62210389951636       0.03400183086646
H         0.13723975817144       1.61666295138221      -1.32140420557290
H         1.54268890984002       0.24392588032952       2.25650504878759
H         2.70209353597164       0.05137200536875       0.97104647049414
H        -2.75491431421486       1.04290228481550      -0.00871204743021
H        -1.48036436448159       2.25366567705251      -0.32344490913999
H        -2.49022462308105      -1.32505637576716       0.24089196106497
H        -1.28759275456434      -2.60961266714532      -0.00916234498048
H         1.43731663891043      -0.08665156239303      -2.58522603847998
H         2.56290832451793      -0.27692408162065      -1.22068137249087
H         3.05698095215611      -2.37410639694693       1.60622028797204
H         1.88238662879193      -2.18493331415216       2.91954712878488
H        -1.53991425496129       3.03880102449985       1.98001584880559
H        -2.79710509765719       1.85674012546665       2.40850279910926
H        -2.01957355307039      -2.82138370617619      -2.39942263809173
H        -3.22704081853536      -1.55190499570916      -2.13846458952173
H         3.17859376272830       2.13269055874563      -1.38108600729388
H         2.07898064525538       2.33612805288828      -2.74915682997141
H         3.33018942191385      -0.39074935102360       3.95580039986133
H         4.51651982841923      -0.59856733296205       2.65286405101884
H         4.21752313214085      -1.93336019224580       3.79736035517903
H        -4.36988718843628       2.90951332873955       0.71547865286258
H        -3.11182444558655       4.10875725096349       0.31858983747467
H        -3.84338616257219       4.09226037509960       1.93895497351045
H        -4.35144624952214      -2.97417358438445      -0.38108252557109
H        -3.13740538950674      -4.25040385788465      -0.63933669645985
H        -4.27665114781542      -3.82897585947750      -1.94128969034092
H         3.39673625297095       0.63457168169049      -4.08306206532131
H         4.51077265747142       0.43182662566335      -2.70847989277727
H         4.43073556643495       1.98855927772516      -3.56616583240258
Cl        1.41777223421833       2.87227291743253       1.91586955813059
