55
C17H36ClN optimized with ADF in AMS.
N        -0.34888318189364       1.88960655852198      -0.19546050291762
C        -1.20808437122667       2.36864311477443      -1.35951685952869
C        -0.25949993640074       2.99180645879181       0.83752117614703
C        -0.92660195716100       0.64779855797976       0.46082103295042
C         1.03014502205219       1.60922907162543      -0.77815883901724
C        -2.58509225046692       2.81906173618777      -0.91579209087859
C        -1.62006779343350       3.48772000448596       1.31127225046799
C        -2.49524290619845       3.92773411381935       0.13591132494730
C        -1.02398763658667      -0.57716040443037      -0.42382866085814
C         2.01490736506622       0.95348886563697       0.16782056484207
C        -1.59026315923803      -1.75469657508305       0.36805788564260
C         3.36646673959357       0.81143304473461      -0.54102425903224
C        -1.69511672224452      -3.01681625941727      -0.48749854468420
C         4.40861514232940       0.06597564904883       0.29529846857776
C        -2.26374539553234      -4.21210437449554       0.27251139804594
C         4.11098751865542      -1.42371344563136       0.47224655523842
C        -2.35552386608590      -5.47001792181735      -0.58901734305807
C         5.20600583583956      -2.15016332582167       1.24998366676884
H        -0.64881723692107       3.21857149051570      -1.78569447366968
H        -1.18052775022550       1.56520725520676      -2.13175276722923
H         0.34676690163325       2.61227043121139       1.67154401279592
H         0.29429649678613       3.80881437657094       0.34872901878204
H        -0.28988637137387       0.45628340637454       1.33988704326876
H        -1.92036923147554       0.92538076221628       0.83529321343589
H         0.84833967837034       0.99757237288974      -1.69893843365832
H         1.40301057774213       2.59223389076370      -1.11022544823745
H        -3.11175516526260       3.17682276418867      -1.81519653927912
H        -3.17604234320492       1.96707731795851      -0.53784361623374
H        -2.12978105186427       2.70963992888052       1.90362171917343
H        -1.43934771329548       4.32851840537283       2.00192907879088
H        -3.49544416077372       4.22047571679677       0.49276031551110
H        -2.04382847750712       4.82377297077548      -0.32927675389599
H        -1.64343701078484      -0.37707977300929      -1.31304747438182
H        -0.04472095876384      -0.84273060383448      -0.85104759992612
H         1.65537876238092      -0.04681088789974       0.45437184349544
H         2.16029654796169       1.53458076821030       1.09773050138239
H        -2.59144471145984      -1.49913938103259       0.76671966248440
H        -0.95006289073552      -1.96253598954330       1.24804037744229
H         3.74624147772035       1.81714271989969      -0.79470169571737
H         3.20906705409796       0.28379454943027      -1.49952613701747
H        -2.32125467274419      -2.80367979039826      -1.37315495071015
H        -0.69465676193066      -3.26852620886213      -0.88434012514639
H         5.39574556763934       0.17324269058490      -0.18894078719573
H         4.49887465917821       0.54514761761856       1.28987483043494
H        -1.63282417400266      -4.41465822733615       1.15811970058908
H        -3.26686564872558      -3.95441389795441       0.66004461833242
H         3.14609778252723      -1.56032817052645       0.99107436625570
H         3.99251834138811      -1.88362401174012      -0.52559744256099
H        -2.76659849117242      -6.31875269680303      -0.02232946455263
H        -1.36162801314340      -5.76145090193547      -0.96514192844708
H        -3.00252011928778      -5.30018741175706      -1.46470497300007
H         6.17847442340459      -2.05207033607635       0.74087577548142
H         5.31767670712999      -1.72973698528945       2.26277775940642
H         4.98467617158589      -3.22302821042651       1.35093637585663
Cl       -0.07373089105933       0.13214313274897      -3.53309753081337
