29
C7H13F6N2P optimized with DFTB in AMS.
N         1.46965247234787       0.32646484511993      -0.34874722020187
N        -0.61280377776292       0.14812868990882      -0.85690829223845
C         0.53075376332587      -0.52243366593560      -0.75433796426325
C         2.89574059389048       0.00754775236270      -0.28527255566063
C        -1.86169594084543      -0.43353434774351      -1.33901611589323
C         0.91472511950069       1.56635660985614      -0.18862638602792
C        -0.40292796407575       1.45371959685163      -0.50475269434073
C         3.14925310616470      -1.18209567438582       0.62959594484671
C        -2.54412300810367      -1.21450939279365      -0.22224351330299
H         0.67574837268132      -1.55993128345619      -0.99732536960544
H         3.21797869719829      -0.22058595391086      -1.30635521548002
H         3.41640058718785       0.89902582854624       0.07181441914695
H        -2.49733024168501       0.38208231659633      -1.69112189884289
H        -1.61283041296409      -1.08985184752937      -2.17785817536320
H         1.49299844832377       2.41744227840204       0.12581527890364
H        -1.19103778976468       2.18598012740611      -0.51757817480045
H         2.73913698655140      -1.00123889717717       1.62309763775589
H         4.22373567764867      -1.33907407847060       0.71141142639171
H         2.69901799574789      -2.08145301168054       0.21266378760175
H        -1.90050918763523      -2.02370104309072       0.12101085369938
H        -3.47282390818611      -1.63941172497270      -0.59978534463697
H        -2.76949018309244      -0.56103624663270       0.62041021573242
P         1.67527670440741      -1.84594396607398      -3.64085989476001
F         1.61961869149684      -0.26853966812132      -3.06381091686396
F         2.26154613412247      -2.30751223563889      -2.12865248452567
F         0.11643964643652      -2.05630487899852      -3.03505018862078
F         1.69745902061702      -3.39614280283291      -4.12154028577778
F         1.05584879719400      -1.34872529403638      -5.05918409143403
F         3.20252555347221      -1.60093979446851      -4.14935857983820
