64
C18H26F18NP optimized with ADF in AMS.
N        -2.13563532526450       0.61443336368305      -0.05460950962251
C        -2.40073815128225      -0.78873800757918      -0.55410348882129
C        -3.26940904786704       0.83363402057598       0.93530257398732
C        -0.81106944412114       0.69427115527586       0.69400490267429
C        -2.81538815922550      -1.57402077369919       0.68396501455015
C        -3.49795148583024      -0.52874162972333       1.60275614352337
C        -2.19266291151374       1.59576623034370      -1.20543403723184
C         0.42627289075439       0.51501489891929      -0.16352673814437
C        -1.97240110183823       3.03755107339294      -0.80475219521341
C         1.67207996007758       0.53621380631560       0.72818139044944
C         2.96591706535199       0.41660067786398      -0.07015594042671
C         4.20638879683729       0.50218782069772       0.81710778181671
C         5.50620816633588       0.37944824642178       0.02751594002337
H        -1.51271354769777      -1.16695209542757      -1.07432140417944
H        -3.23139215772515      -0.70556832708079      -1.27190043332440
H        -4.13860483974686       1.14664516471171       0.33831062829724
H        -2.98627368469011       1.63267951853162       1.63132805260902
H        -0.86097281863701      -0.06863278148025       1.48325786903448
H        -0.80152245926792       1.66559677210732       1.20064510306727
H        -1.93960724133629      -2.02058048936057       1.17679624696168
H        -3.48782841044145      -2.39821048628535       0.40654031829573
H        -4.57660696844042      -0.71617035344141       1.69967098251529
H        -3.06908806889434      -0.54452150060914       2.61328232117720
H        -1.44018007137344       1.25598218045048      -1.93308606350992
H        -3.18704777538448       1.45204217290760      -1.65740004596226
H         0.40132780056822      -0.43408311902236      -0.72842453477524
H         0.50804603026817       1.33429891551659      -0.89768992171772
H        -2.09974362740466       3.66363538765999      -1.70063358716130
H        -2.69340725965965       3.37812522584763      -0.04921441703880
H        -0.96583326367722       3.21982443780613      -0.41061008241306
H         1.61120793138578      -0.28682114732513       1.46360113502693
H         1.67885195077326       1.47031161899658       1.31095141412637
H         3.00442003146643       1.22484683840707      -0.82524336463499
H         2.97722320798609      -0.53771493260864      -0.63124704196148
H         4.18707292756457       1.46139631227963       1.36440981499316
H         4.15748779290240      -0.29183456640855       1.58475639565544
H         5.58596836666866       1.18121242731101      -0.72441178710008
H         6.38589836647714       0.44758359888141       0.68542041229235
H         5.55568573324433      -0.58485200309255      -0.50401264230777
P        -0.64066990201977       3.61506615963542       3.64322393660015
F         0.32512403492888       2.35938422484783       3.07028897704653
F        -1.81118710239271       3.34233063492580       2.43501638889887
F         0.46141967683414       3.88211626064094       4.84339972040124
C        -1.52309078915785       2.16220583545021       4.65566455798284
C         0.38583381062136       4.72702322430028       2.27170780035447
C        -1.64833580558660       5.22146283723465       4.31633985528468
C        -0.78183124415220       1.52078720856882       5.86763817636126
C        -0.12343544476099       5.97886243040353       1.47155536323804
C        -2.56177489046247       5.31302719774133       5.58140398493589
F        -1.74474321731550       1.08345131517251       3.79351126770532
F        -2.77094697965631       2.51568620617196       5.10651433708129
F         0.68590302431069       3.85934530089146       1.21148084758997
F         1.58647750702883       5.10460386907360       2.81336030515410
F        -2.43882600996441       5.72366538519895       3.30022987140921
F        -0.65766861092562       6.14795911944389       4.56934885646089
F        -1.52627504440677       0.47049834659789       6.33452718520076
F        -0.62069480363233       2.38653196763355       6.88636425551878
F         0.42803556042357       1.03492590168974       5.50856711027935
F         0.81593357173096       6.28854752611877       0.52555186625407
F        -1.27867952467246       5.70443336749327       0.80937959219835
F        -0.30182933781228       7.08320820905688       2.21614641655644
F        -3.79822577357683       4.80750044356648       5.35531448424940
F        -2.73048716467356       6.62643207318595       5.90459764518590
F        -2.01110256735254       4.69586247319558       6.64879626672194
