67
C19H28F18NP optimized with ForceField in AMS.
N        -0.69674082413674       0.53168640033473      -0.21008080902779
C        -1.67376776367206       0.27527975663735      -1.31836572414082
C        -1.24531157642166       1.61461459796197       0.67103324414333
C         0.56370338135796       1.03457121420058      -0.85904107318813
C        -0.44328810906682      -0.70396759745901       0.61204213030372
C        -3.09392042100286      -0.06856676369253      -0.83790151809391
C        -2.66771755346930       1.33591983582327       1.19873727380466
C        -3.63664856747499       1.03970801779574       0.05816823029117
C         1.75761215928926       1.29069800059900       0.09456290345872
C         0.22278363660215      -1.88503347694342      -0.13613088104575
C         2.96652631251897       1.82633092471486      -0.68340778505942
C         0.44804717629310      -3.06810046726878       0.81458677970033
C         4.15861856817689       2.05864748137969       0.24062444770274
C         1.10519398551427      -4.24130602703284       0.09288306566272
H        -1.32073036158280      -0.52886907280903      -1.99651083433125
H        -1.76342119998973       1.18005387797983      -1.96450421611948
H        -1.27780059364122       2.58455909851714       0.12287462054699
H        -0.59756305183164       1.77159730374690       1.56016483556059
H         0.35739587587187       1.98967429348974      -1.39584818235864
H         0.89733112103673       0.33100640181659      -1.65396543956831
H        -1.38500830246853      -1.09041199037323       1.04712985154324
H         0.18125683472885      -0.45233511814465       1.49701659674779
H        -3.11708521385651      -1.04426800110652      -0.31049248684080
H        -3.75835723966484      -0.16879443200423      -1.72343037520923
H        -3.02833819929083       2.23215356755848       1.74871376900642
H        -2.66482078859371       0.49708237161762       1.92545085359238
H        -3.79226896595793       1.96186181197750      -0.54443488644704
H        -4.61975712757104       0.73214708401478       0.47566394642362
H         2.06464456797859       0.35147714830396       0.59802303659219
H         1.48515897498167       2.03865022133581       0.86658190467287
H         1.20697536036035      -1.58614920461873      -0.54996138447622
H        -0.42547573273611      -2.23254556217705      -0.96568711604712
H         2.70095778908608       2.78801620112315      -1.17450115701965
H         3.26026387986595       1.09868473023995      -1.47111288156036
H        -0.52589957555977      -3.40500356611717       1.23237012122492
H         1.10197146759503      -2.75395564457243       1.65724748077069
H         4.47027307813133       1.10460179347297       0.71707343478838
H         3.89365525802558       2.79307964006175       1.02974646620222
H         5.01269804096577       2.45840785849233      -0.34548103200912
H         2.09851333253542      -3.94218647698951      -0.30468884499279
H         0.46337469130172      -4.58804446539043      -0.74500573733869
H         1.24620884413690      -5.08264205557597       0.80343699089357
P         7.67308038590537       5.69172690446411       4.72729433161527
F         8.90852972445265       4.57292288775981       5.15878520057817
F         6.42813539970236       5.77234647787210       5.91656562407493
F         8.90616584136048       6.01888415022766       3.57284918707044
C         8.53774258646973       6.64098428149259       6.18113352774077
C         6.99596436157591       3.93500145695759       4.27720576931376
C         6.75552992223851       6.84616972891243       3.47731177963876
C        10.05114324168122       6.95754194950369       6.03643943125808
C         5.53627079987389       3.84752618044626       3.78591870167031
C         7.11301120288010       8.34554901352697       3.51456516278358
F         8.40945151602507       5.89473859483370       7.34650163458014
F         7.88624259500394       7.83808846553326       6.40197403998981
F         7.06670449679225       3.10793003227971       5.39460297911589
F         7.79264284250785       3.38813799917004       3.28076176249416
F         5.39659856392688       6.77676708367705       3.72670353401179
F         6.95908046325122       6.39304873351228       2.18087792218097
F        10.43429879398870       7.77339656673442       7.08652235022056
F        10.34208281162802       7.62184553884612       4.86433108059912
F        10.81799558131012       5.80800440783766       6.10226847585822
F         5.18887060867324       2.51297747339891       3.66625250192427
F         4.66219570459100       4.43092290688195       4.68353499269080
F         5.38585790788945       4.42526999352213       2.54173480315439
F         6.56813698638681       8.95205565466329       4.63071243859855
F         6.57000448528730       8.96333131519935       2.40161693828340
F         8.47350623443258       8.55685687192677       3.48849293889515
