39
C11H18F2N2O4S2 optimized with ADF in AMS.
N         3.00130618806102      -0.68502505827642       0.30992350870508
C        -0.73226891219824      -0.70348999900297      -0.55676367190816
C         0.53953060475630      -0.38189371377605       0.22512216297942
C        -1.97629789485527      -0.09061270801628       0.08161209793403
C         1.76015916075244      -1.00308324000552      -0.43747211862241
C        -3.26015727674161      -0.40168027470190      -0.68416307999182
C        -4.49337431388448       0.21700518246909      -0.03108962089488
C         3.59363953508370      -1.62507156545508       1.07444407920370
C         3.54415946277542       0.54550270259568       0.17249800825918
C         4.78053902185535      -1.34991267584888       1.72671829338291
C         4.72544231543868       0.86675539238936       0.80635621028821
C         5.35895189628400      -0.09442562126978       1.58865454419742
H        -0.85455927096880      -1.80003157569266      -0.62629892420245
H        -0.62712855332404      -0.33564097669644      -1.59380386563226
H         0.66759058154448       0.71377927142913       0.28868291907136
H         0.45309100619464      -0.75462919857463       1.26177685793814
H        -2.07296339498744      -0.45765224238208       1.12084225265000
H        -1.84915483365992       1.00638334166464       0.14958326433315
H         1.91800338035468      -0.64267554864849      -1.46438530115467
H         1.69243392982076      -2.09744046998410      -0.49328269471362
H        -3.16066414087218      -0.03453841125917      -1.72192285809330
H        -3.38346800686307      -1.49796506835242      -0.75428961520054
H        -4.40128667991560       1.31376804521456       0.02286021824040
H        -5.41040580274453      -0.01674225752646      -0.59348460155122
H        -4.62374584232316      -0.15788451863693       0.99686124673038
H         3.11757546342211      -2.60231498204966       1.09618381433676
H         3.03059549146266       1.22386567002727      -0.50379359614013
H         5.26316804592416      -2.14379765326996       2.29510862000210
H         5.16690111179879       1.84643321193810       0.63204011720311
H         6.31655253691507       0.12631282575413       2.06183898982804
N         5.41237748936592      -1.31922385033542      -1.50855756559196
S         5.39122969562033      -0.16598856961858      -2.62237290330236
S         4.79384000637146      -2.77860175983980      -1.77254706453845
F         3.73959829021236       0.23433108742939      -2.71783136034553
F         5.73341561903294      -3.42786683552623      -2.94279580048523
O         5.95965885693820       1.02442278405922      -2.01320903045032
O         5.71209125126097      -0.55425316735548      -3.97744714117482
O         3.44829485379304      -2.78904254678909      -2.32815457820018
O         5.06818416319888      -3.57303017698007      -0.58432255158909
