41
C13H25ClN2 optimized with DFTB in AMS.
N         1.42993662228417       1.99808133835472      -0.00722157158624
N        -0.63522168555404       2.34749907502850      -0.47840614523192
C         2.74794264413819       1.37294856931165       0.00946494758750
C        -1.95203929555253       2.24236360049902      -1.11019552432072
C         2.84887169038531       0.39075992420697       1.18226984187046
C        -2.31829640757775       0.78824063507897      -1.40999020237584
C         1.96699341361010      -0.85168935417746       1.00564602945831
C        -2.31086622637094      -0.09055748536061      -0.15559886505023
C         0.43800480645654       1.63395521544184      -0.81538182865374
C         0.98672025166315       2.95944880204955       0.86266876659622
C        -0.31959285714672       3.18162077593083       0.56180002500516
C         2.55657906812158      -1.85106275496122       0.00366298002826
C        -2.45260218888372      -1.56866904338491      -0.53235172396748
C         1.65810265492698      -3.07616160793636      -0.14635759185150
C        -2.39586890562118      -2.46255953075772       0.70428376474321
H         3.49660401595828       2.16354794139994       0.10770784781370
H         2.88331558583253       0.86311240147234      -0.94709219683464
H        -1.92824372699110       2.82427724550115      -2.03743589711701
H        -2.67486346223138       2.69939726133148      -0.42809276972918
H         2.56832134388165       0.91604307830564       2.10073372347572
H         3.89655292124298       0.08986372429227       1.27548303951451
H        -3.31602802645772       0.78885497024033      -1.85824744166731
H        -1.62097804528636       0.37902635312196      -2.14609734918467
H         0.96684234944935      -0.54722520296091       0.68073129324123
H         1.86253222830002      -1.33682765222119       1.98170580388296
H        -3.12400756305686       0.21110616496162       0.51486554480467
H        -1.36748822296257       0.05025905245090       0.38336673139028
H         0.50154140242982       0.83739493902654      -1.58160953441171
H         1.62529122255161       3.40361065864725       1.60600051455024
H        -1.03792895395725       3.85534161060990       0.99522708787019
H         3.55104445040929      -2.15852008154329       0.34655937301690
H         2.66583589025560      -1.37301041827620      -0.97374702682783
H        -3.40208517150662      -1.72359654071907      -1.05498285471501
H        -1.64161730691511      -1.83877739862361      -1.21522650682067
H         0.70688926575822      -2.78787987456290      -0.59358068545258
H         1.46825326097107      -3.53909015466567       0.82389375989221
H         2.13781840530877      -3.80799041217199      -0.79585425566976
H        -3.20607347330879      -2.22057751854122       1.39451661037149
H        -1.44600316195414      -2.33238485980411       1.22534732966108
H        -2.48906087921810      -3.50828978874564       0.41141503944669
Cl        0.55898755671767      -0.76558959304932      -2.63294320365294
