49
C13H25F2N3O4S2 optimized with DFTB in AMS.
N         2.40121735884997       1.30734912889166      -0.17561514406900
N         0.49987508499132       2.12810015444677       0.41637502255753
C         3.48480207113858       0.77938284870565      -1.00031446061031
C        -0.87776861176981       2.59903832416403       0.34444022680686
C         3.66712700877753      -0.71324494555472      -0.73193764763307
C        -1.79220631853949       1.47976034308450      -0.16404209485098
C         2.38976822452324      -1.50766552945597      -1.01196916097410
C        -1.71817098814157       0.22716030238403       0.71478332360716
C         1.25436983092460       1.79183096226434      -0.63602212182443
C         2.38710286681673       1.32465950051603       1.18967994638933
C         1.18769543158824       1.84110862014989       1.56541871442100
C         2.59523890803378      -2.99903389423488      -0.72639332420743
C        -2.62135995629821      -0.88471350502190       0.17152633317347
C         1.31001376759348      -3.79027182223725      -0.96138901775415
C        -2.50605840329431      -2.15105029463878       1.01733803609183
H         4.39284060080331       1.33225203334750      -0.74642175345071
H         3.22725658194391       0.96802457368932      -2.04568130532027
H        -0.91589174256974       3.45933315800264      -0.32978981780898
H        -1.17096604787135       2.91796298918133       1.34739984101571
H         3.98123548332370      -0.85577894794761       0.30496161352096
H         4.47744316721246      -1.06561467186823      -1.37405045077342
H        -2.81569258479482       1.86462017637860      -0.17965500222779
H        -1.51141244041790       1.22633586479155      -1.19089884058399
H         2.09215666115123      -1.37047635529316      -2.05798759804830
H         1.57421679216808      -1.12833497385920      -0.38379592408073
H        -2.01678772465099       0.48036475934593       1.73746091581824
H        -0.68414299829140      -0.13227625798985       0.74805954774940
H         0.98393711118589       1.90526636299567      -1.67146519986499
H         3.22253380509253       0.98149008581829       1.77380458599191
H         0.77372524862859       2.03240061797623       2.53959673552920
H         2.91824312699061      -3.12704271874599       0.31158155350886
H         3.38755863050286      -3.38663750372958      -1.37399436993376
H        -3.66034675808365      -0.53966146866229       0.16530898406089
H        -2.33628101269725      -1.10918926657281      -0.86177168533585
H         0.98026838353343      -3.68818542944067      -1.99634338867568
H         0.51374435871013      -3.42973684548200      -0.30737001932901
H         1.47797310000249      -4.84672506926888      -0.75270797858826
H        -2.79917810536352      -1.95104524006047       2.04851343295696
H        -1.47948138412472      -2.51993690177366       1.01305920913526
H        -3.15590109521965      -2.92748993670171       0.61463860759725
N         7.28694219155169       1.24216111010280       1.21183179243746
S         7.10844096369500       0.68957568908329      -0.28686298678549
S         5.95159268356478       1.68633831240340       1.90073962058819
F         8.66882593107117       0.64401344944222      -0.60664465316502
F         5.11176233950591       0.26441521128463       2.12550325246337
O         6.67135344471038      -0.67256449249075      -0.36016489595667
O         6.55460955573476       1.60724754284583      -1.23940489800709
O         5.00622153631944       2.44331277850462       1.11820683107672
O         6.22876380578852       2.12521109152960       3.22568388036193
