31
C7H9F6N3O4S2 optimized with DFTB in AMS.
N         1.10744917185693      -0.98133355567911      -0.92183936828464
N        -0.79128554744319      -0.04793695465686      -0.52861854333934
C        -0.14343061590384      -1.21056750560315      -0.52667230530537
C         1.25011648227971       0.34775599971360      -1.21932823025269
C         0.05340219331229       0.93757312744781      -0.96697810227605
C         2.09796724750388      -2.00777337490711      -1.19874262057547
C        -2.21572254524413       0.12074583340549      -0.28628242553926
H        -0.55843922443376      -2.16267676272599      -0.24343946446804
H         2.17575695750311       0.75195855393292      -1.58936395875099
H        -0.26840530014266       1.95821049944729      -1.07422953438378
H         1.79925987086271      -2.93057400126723      -0.70539802491277
H         2.13841885035074      -2.16008091926169      -2.27931548423021
H         3.06985135347314      -1.68075861681229      -0.83188417539422
H        -2.37390072057860       1.00770180775584       0.32553988889584
H        -2.71931553821669       0.23377720089700      -1.24818816891719
H        -2.59423954486488      -0.76609984058853       0.21755509039946
N        -0.88019723893139      -2.12530856996475      -2.79508291702347
S        -2.44729031946533      -2.40167752255964      -2.58145678861602
S        -0.37479664133392      -1.55891776110351      -4.21206944443555
C        -2.95754651827241      -3.91628620933522      -3.56247414612035
C        -1.13256081344120       0.13781307237776      -4.50881921132125
O        -2.56063563275503      -2.81230099287919      -1.19405590534621
O        -3.31150594745610      -1.32987429768173      -3.02386305046535
O        -0.75696565692707      -2.35016436076662      -5.35036833706915
O         1.02756413854042      -1.26029135022150      -4.01292028038929
F        -3.96816864567241      -4.49836330638472      -2.93998934474195
F        -1.94419747148745      -4.76315428098272      -3.62274097619992
F        -3.33105279588097      -3.58150138359052      -4.77772996535036
F        -2.24450561140663       0.07323371286638      -5.20345629376496
F        -0.25361956669787       0.88280291331069      -5.16104732284489
F        -1.37933298452745       0.73332364751731      -3.33663862487655
