55
C15H20F18NP optimized with DFTB in AMS.
N         1.02404438088386       0.64399519200915       0.12708624130926
C        -0.10409507871658      -0.33711876915515       0.22177674067803
C         0.41818443919038       1.91102407441519       0.66250398459000
C        -0.81560560106297      -0.00802223418755       1.53054955172166
C        -0.51630345255066       1.47614453546606       1.78841043086923
C         2.17291155375679       0.23186216494943       1.00937656044425
C         1.44007002721844       0.80197087460807      -1.30565255972108
C         2.92206393221877      -1.01824405254249       0.55538907326250
C         2.55338906716390       1.81498217369545      -1.51825630501321
C         3.96765010579621      -1.38534177564702       1.60980731231121
H         0.28247647125779      -1.35441358033096       0.17752396440286
H        -0.76279024830058      -0.16656257899141      -0.63317049257860
H        -0.13731428216224       2.38091377648226      -0.15212435943233
H         1.20430072388628       2.58127601669327       1.00232463799034
H        -0.43543083552739      -0.62799442852211       2.34470680141905
H        -1.88595354508858      -0.19554804983076       1.43219018505246
H        -1.42636256261636       2.07780119901010       1.77025959914282
H        -0.03861817733273       1.61152223942090       2.75944098590161
H         1.76404833009075       0.08105100213090       2.00960331600164
H         2.85643571243341       1.07835901646028       1.05203498880375
H         1.74120415926604      -0.18510562895005      -1.66410738703380
H         0.54766625703102       1.10969681011868      -1.85785135741706
H         2.23399913515383      -1.85843750691963       0.41947829494464
H         3.42693697439205      -0.83673170373728      -0.39707896693317
H         2.27331428703937       2.79688934418034      -1.14420545654673
H         3.48034862241275       1.50834313435842      -1.03896777892210
H         2.73249821680233       1.89271588664207      -2.59033351817766
H         4.68712725909698      -0.57697103954231       1.72616769125665
H         3.49194772624094      -1.57247923513391       2.57254501243354
H         4.49748128632337      -2.28511932691398       1.29932989903257
P         4.75815297706816       3.06639453093740       3.17178913417327
F         5.00526613640631       2.23148705486008       4.58397762963982
F         5.05516660371595       4.53825829026580       3.88778475357282
F         4.42678641486157       1.59219496499564       2.36468791509800
C         6.67404479348758       2.81030825709116       2.88104337043187
C         2.83786910474025       3.17434368551668       3.76348894811659
C         4.29858694097342       3.98181679878664       1.41234605995668
C         7.17644242273590       1.37479715930071       2.56186374211034
C         1.93295523009172       4.43262441087736       3.58990093704307
C         5.11705998012425       4.04582502808390       0.09306367200076
F         7.32013720159307       3.20439584709390       3.98753054630200
F         7.10121488263876       3.59765109916701       1.87446111326457
F         2.80075846951666       2.92954559286878       5.08049522645522
F         2.11848369022174       2.17014583658545       3.17712061775171
F         3.91159686445729       5.24202869464983       1.66397070092033
F         3.16662292732114       3.30785404414815       1.01577822986577
F         8.50862019261378       1.33760524099648       2.56479538526645
F         6.76582952582280       0.97729860067679       1.35431389414996
F         6.74115656502756       0.48793171617480       3.45170625604771
F         0.87791591121062       4.31675435528351       4.40626502668946
F         2.54529332700122       5.56756201450415       3.87785974265893
F         1.43591033249367       4.51528366167928       2.34858984489471
F         6.05617241478636       4.97482888128362       0.10442882395169
F         4.28327939202760       4.33286007866280      -0.92238611787881
F         5.66607462386543       2.86313145347411      -0.18992961207523
