34
C12H19NO2 optimized with DFTB in AMS.
N         2.32298883943525       0.22841470235459      -0.75848913140877
C        -0.08040426359071       0.30765338995183      -0.08099213716571
C        -0.87669053912472      -0.99017496102048       0.08527404421266
C         0.94286933712844       0.21664081814093      -1.23402241585617
C        -1.84627317400111      -0.89828891182177       1.26791039080032
C        -2.62416252062292      -2.20013973650343       1.45272362197868
C         2.86789948231939      -0.99808383074768      -0.26313434696739
C         2.90151843127809       1.42451538454230      -0.41757305980793
C         4.34734472429465      -0.90762016342014      -0.07286017808627
C         4.17881153014577       1.49396841118813       0.01595655955569
C         4.93966896685985       0.28038414728216       0.11857451862267
H         0.44563778075434       0.53581458182596       0.84962322684029
H        -0.77317920492049       1.13119833607403      -0.28034036645715
H        -0.18651401587241      -1.82358484371453       0.24583098788181
H        -1.43839348428298      -1.19393442005182      -0.83292599814121
H         0.79261296205384      -0.70111660429782      -1.81189321620299
H         0.82066808617426       1.06591051177701      -1.91306668872311
H        -2.54850086934461      -0.07414139250413       1.10185225573220
H        -1.28351946221387      -0.67834885690903       2.18175264747300
H        -3.20603181745015      -2.42794268328574       0.55848226485688
H        -3.30664489316431      -2.11214673763339       2.29844710550243
H        -1.94111663923693      -3.02947863786770       1.64212834041376
H         2.57870218668474      -1.83402196622580      -0.91568241965427
H         2.29823855927435       2.30682867366555      -0.60235534357892
H         4.88062710055826      -1.84729321491559      -0.01467953697414
H         4.63840251292989       2.44746569938405       0.23543844930694
H         6.00471984734310       0.34841656861451       0.31087818621335
C         1.66815384476811      -2.67705713663485       2.85916903392561
C         2.26308789557423      -2.53884733899844       1.47585585766476
O         2.71313113428437      -3.45440830367233       0.83839905890190
O         2.22787662934698      -1.27950764852197       1.05735691155900
H         2.32280778552082      -2.17712896413314       3.57146752203675
H         0.69260370939387      -2.19605019266380       2.89272465726586
H         1.57824333840260      -3.72903205985745       3.11743792097945
