53
C15H17F18N2P optimized with DFTB in AMS.
N         3.28531225491380      -0.95143679160937       0.59230596044289
N         2.66818859667697       1.11144526516494       0.55460796318132
C         3.57770497005672      -2.30648998975772       0.13790094789631
C         2.20873564440428       2.39866908175770       0.03669818614130
C         2.64197353797396      -0.03133226482484      -0.12520803116357
C         4.83516094708138      -2.29699496303549      -0.73961490349035
C         1.25327301323633       3.08266462620491       1.01076313684875
C         3.75749212433241      -0.37465343758454       1.73981436666503
C         3.36649541670669       0.92616276928327       1.71766202708411
C         5.12639439892974      -3.69181596153158      -1.28178165558247
C        -0.00548835800257       2.25301530652595       1.25539435769698
H         2.71174402314346      -2.66913853615764      -0.42374107624112
H         3.71868992509850      -2.93482133609363       1.02114657450687
H         1.72095857207176       2.21028336340935      -0.92321135932702
H         3.09722636034468       3.01355460822786      -0.13448030707202
H         2.18691407998198      -0.18483776595128      -1.08808100068004
H         4.68551359245407      -1.59527511428210      -1.56380841467403
H         5.68092574183472      -1.94130705438293      -0.14795382580595
H         1.76570964448908       3.26888018846225       1.95859924565397
H         0.98099487076923       4.05043606422595       0.58127186456720
H         4.33843645289918      -0.92505905787017       2.45841878134775
H         3.56833302547941       1.73155207285602       2.40141041118149
H         4.29486019908717      -4.05204414012158      -1.88931005957320
H         5.29388109012274      -4.39559733369391      -0.46550483423211
H         6.02121368193068      -3.65815356733905      -1.90176990043077
H         0.25196313271036       1.28610704247944       1.69008628759594
H        -0.53961148721963       2.08268756150823       0.31979795178917
H        -0.66706147879847       2.77815361030150       1.94327177168732
P         6.60387486999585       1.72936419175967      -0.86641248548840
F         6.37477367668777       0.15854857127071      -1.45958944668747
F         8.07389100728806       1.81863039263888      -1.63662589176788
F         5.07962779962422       1.65181809192867      -0.08372115688639
C         5.63851209023848       2.35115367518175      -2.46160127132969
C         7.36469887277594       0.81636944889715       0.70182496097514
C         6.88000019412342       3.57211660982576      -0.15848942423730
C         4.81244789440015       1.31571841346758      -3.27156442773423
C         8.77193184459161       0.18006088425849       0.56879188329476
C         5.87394201613340       4.20149962672732       0.84893262490880
F         6.44533824072332       2.95536255324757      -3.34248234042041
F         4.72656669287487       3.26831046404020      -2.05316736462233
F         6.53073340460812      -0.20373634290170       1.03386436661919
F         7.39899078833441       1.62007479299912       1.77872446893272
F         6.93270195209817       4.42753676411496      -1.19663431192269
F         8.09035675100497       3.60289492663067       0.43099001228034
F         4.05034309873317       1.93683397687559      -4.17376314521304
F         3.97105259293042       0.63300083015831      -2.46722104586430
F         5.56865317324266       0.43847464529347      -3.91174082243078
F         8.82825138484725      -0.64627179220288      -0.47201486599071
F         9.71279435313297       1.10448405078696       0.43152252773365
F         9.05237121935083      -0.53266554749827       1.66564292698200
F         4.72435962105388       4.51834011256239       0.24167659398190
F         6.36810357574151       5.31556473914317       1.38086608205435
F         5.56162399925587       3.37804245602283       1.85475808501904
