26
C4H12F2N2O4S2 optimized with ForceField in AMS.
N        -0.00540038673510       0.00300749643688      -0.00235680568762
C        -0.92057846110672      -1.11233485459505       0.32642412942511
C         0.63694963989058       0.49401504024337       1.23673692662929
C        -0.77217044939614       1.10293183527122      -0.62806864780836
C         1.03306584326161      -0.47242123340213      -0.94353797260579
H        -0.36740270949761      -1.95751292477203       0.79448244494549
H        -1.70963596405090      -0.78389286971078       1.03954102612076
H        -1.42387576835245      -1.49868283718368      -0.58809525527681
H         1.35971787720489       1.31143995463080       1.01558134778358
H        -0.12079763821140       0.88935715029261       1.94977998319080
H         1.18781940241769      -0.32422149946010       1.75026116475926
H        -0.10604725194212       1.95644662866174      -0.88664056244389
H        -1.27014091507861       0.76099055502120      -1.56299248184979
H        -1.56117629980412       1.48115235164241       0.06022382592853
H         1.73982882815793       0.34650770950232      -1.20603203149252
H         1.62347596164380      -1.30475618350345      -0.49950315161915
H         0.57530681505664      -0.84399789770113      -1.88775618785372
N         4.73252985909362      -1.66188500821277      -0.73511566741682
S         4.79555298243226      -0.55053989707523       0.46430195548263
S         5.96772193851839      -1.84313223705367      -1.79287255741345
F         4.48462219463657       0.96588636698681      -0.17421516992074
F         7.24763186993457      -2.59869202460395      -1.02139307332925
O         3.76314576413575      -0.87620284712127       1.50460847566383
O         6.16057676155758      -0.54586965441512       1.09276980859269
O         6.42192656253247      -0.49857984141733      -2.28704990608982
O         5.51707629920082      -2.68350165176168      -2.95351691471424
