29
C9H12F3NO3S optimized with ADF in AMS.
N        -0.38395387699983      -0.31585991613752       0.11708232118091
C         0.97926530554141      -0.01664498232604      -0.37757166158016
C         2.04245643878755      -0.71960220379350       0.46026650078759
C         3.44316837340602      -0.39414044523128      -0.04675909781070
C        -0.98926249047858       0.54270408846082       0.97105497253437
C        -0.94629704368290      -1.50949800965651      -0.18905601221664
C        -2.22899203402775       0.23192684723759       1.50947640507096
C        -2.16868603808839      -1.86350598191077       0.33550123053735
C        -2.81772290882320      -0.98281608417438       1.20473606249539
H         1.01540514023463      -0.32205238968617      -1.43619335441144
H         1.10095308635100       1.07614456852317      -0.33587856147121
H         1.86510174716503      -1.80820578337165       0.42981890506444
H         1.91584711700532      -0.40963286523772       1.50977402592515
H         3.58500372256353      -0.71168528826146      -1.09208519822708
H         4.19524292593204      -0.90984735179374       0.56812884723646
H         3.64873378762587       0.68605368550509       0.01438153998170
H        -0.47138327103089       1.47428153368779       1.17313780869942
H        -0.37100596582073      -2.15221396305336      -0.85227539632068
H        -2.68369347599980       0.92301347036179       2.21615505844603
H        -2.59550714665543      -2.83367827824814       0.08573158515115
H        -3.76675512353079      -1.25935700922961       1.66409770915415
S        -0.17792228928296      -0.64487864137861       4.09985953195680
O         0.38846519382444       0.25469322803435       3.05210053988055
O        -1.62459813417638      -0.88806846549510       3.95919292271508
O         0.33378771167788      -0.41307133933189       5.44634323167215
C         0.57183313972703      -2.30828845009022       3.62708113917122
F         1.93173615726133      -2.25244934793856       3.58198225069360
F         0.14892760291169      -2.71159744129710       2.37976963065734
F         0.22125273688288      -3.28103788606725       4.50184763232609
