28
C8H12F6NP optimized with ADF in AMS.
N         0.47639722552585       0.18212156587844       0.25024379960610
C         1.54859767291415       0.16625200375666      -0.78306298709216
C         2.64153274017286      -0.84970891309962      -0.45878218549950
C         3.87935137990108      -0.59197173503713      -1.31213775998623
C         0.21233712227510       1.32076595968845       0.92022133831563
C        -0.14297287252209      -0.97341962385154       0.57660909316454
C        -0.69792134964637       1.33047242689688       1.96148311156023
C        -1.05469210102420      -1.01430615854290       1.60914616018090
C        -1.33134679109866       0.15096358367378       2.32218342382952
H         1.06576432875378      -0.02745542370758      -1.75600553004565
H         1.97346572786430       1.17813379331022      -0.79029778949534
H         2.27298660804065      -1.87577168554335      -0.63211276894961
H         2.89504695975011      -0.75239468560391       0.60725061252687
H         3.66295426173917      -0.65729098279428      -2.39009646211724
H         4.65777650500707      -1.33108990894728      -1.07479765638756
H         4.29216429997783       0.40408505704319      -1.09295247094979
H         0.78527868195365       2.19681251517851       0.63363215089114
H         0.14120486629173      -1.84974358565379       0.00093489100612
H        -0.85412414571968       2.25766038277943       2.51043023158946
H        -1.52274323565192      -1.96354218418368       1.86773046241263
H        -2.01772944631784       0.13024535891133       3.16974699062166
P         2.95905137802237       0.93006752244650       3.14260836055659
F         2.86620279786548       1.53940454188183       1.56197221558187
F         3.99539327493785       2.13274250100555       3.53055972707800
F         1.65999872694602       1.89470743998208       3.53932760365014
F         3.00678058591299       0.32350581156922       4.65893038110365
F         1.87934050717207      -0.27722855350042       2.69498529736154
F         4.20049196145663      -0.03970855143660       2.65728598088650
