35
C11H18BF4N optimized with DFTB in AMS.
N         2.72186421625735      -0.08091296808559      -0.50502446064260
C        -1.04316988892726      -0.41556781936145      -0.63654844689389
C         0.31448193925646      -0.03993749201621      -0.03939832284399
C        -2.13248945062772      -0.39891527013558       0.43947551174771
C         1.39321099662458      -0.05750691468214      -1.12955726384647
C        -3.48933267576004      -0.80650186997813      -0.14280045050589
C        -4.57974557680756      -0.79597947046444       0.92732447164076
C         3.39797858558357      -1.23745235006822      -0.45004125343714
C         3.17271758581049       1.02265995144797       0.12461197724106
C         4.62188786931821      -1.30094393064230       0.20629630059376
C         4.36548919474634       0.99969787394938       0.80329275160358
C         5.10720134244580      -0.18375185585803       0.85152080900913
H        -0.97011486499850      -1.41973969227030      -1.06542846384003
H        -1.30330369140246       0.28234387570004      -1.44072040384147
H         0.27378254820006       0.95201412612347       0.42217689644810
H         0.58471624157860      -0.76760360243310       0.72920015040706
H        -1.85717549409000      -1.09094757495761       1.24180303939825
H        -2.20552426542418       0.60514968144544       0.87298042497047
H         1.32664152513037       0.82477901522381      -1.77237619435323
H         1.29648025917269      -0.96061162359807      -1.73451331318212
H        -3.76323341980042      -0.11673167141449      -0.94894775486083
H        -3.41228037839140      -1.81032336231038      -0.57315796968786
H        -4.68659748337921       0.20190979000477       1.35581436483796
H        -5.53481521630321      -1.09088094583062       0.49160946720311
H        -4.33375568192603      -1.49315192621884       1.72938328463180
H         3.00555528823861      -2.07633045947269      -1.00847456435232
H         2.55705404088463       1.91130202139700       0.05593240671410
H         5.14564313878867      -2.24744924311615       0.22971397768874
H         4.71560675771070       1.89631500272562       1.29836938316153
H         6.04899704121439      -0.21301484042967       1.38599872609615
B         1.68579739984391      -3.37948991851917       0.39651999906487
F         2.82922001345040      -4.01521717107992      -0.08053740552918
F         0.94989547462506      -2.87893617885005      -0.70410343597747
F         2.14518894490564      -2.20150765768431       1.11606362179376
F         0.92437014875154      -4.15298387654003       1.21547962804262
