39
C11H14F6N2O4S2 optimized with ADF in AMS.
N         2.92348428180358       0.82526611400357      -1.42986791962047
C         1.37696465217152      -0.38291284710168       0.05981238801330
C         2.52531615361285       0.61860616410644      -0.02035656348113
C         0.91576719343292      -0.62546933423931       1.49605042050313
C        -0.20804151501986      -1.65781445921921       1.56803377017413
C         2.45284425175497       1.88567634480209      -2.11901257469072
C         3.78196991871371      -0.04894360090145      -1.99341071471315
C         2.78973460013271       2.06402389979012      -3.44463625714467
C         4.13929968197305       0.08069867405318      -3.32439636584095
C         3.63524922545835       1.14278606308040      -4.06212203336935
H         1.69857733735101      -1.33896306628073      -0.39151083296719
H         0.52975875301773      -0.01463038908165      -0.54769893468983
H         3.42804086320640       0.27959011312580       0.50924081286428
H         2.25712072643178       1.60313760469016       0.38654567454420
H         1.77356075003610      -0.96519249186678       2.10260764805025
H         0.57538225816016       0.32784694116172       1.93778579044781
H        -0.53127553887562      -1.81835702748142       2.60697037624621
H        -1.08569863408419      -1.33113020104447       0.98789081105314
H         0.12067186750173      -2.62840780041309       1.16393031207460
H         1.82576576759111       2.57910171209693      -1.56415014666452
H         4.18238308227485      -0.83526465075502      -1.35732140258605
H         2.40996103779188       2.93523371813289      -3.97643730960713
H         4.84810845045177      -0.63282597862854      -3.74305682582682
H         3.92244502953417       1.27563712942431      -5.10629809256654
N         5.72428426034258       1.20474210548558      -0.54613894532464
S         7.01865976573484       0.24354614434817      -0.65278057424769
S         5.76658187036844       2.80838822037017      -0.35960609140380
C         7.53246789457017      -0.12942782344460       1.12769045761640
C         6.39328524443284       3.55312575553317      -1.99632772794122
O         6.50618603072869      -1.04742883833606      -1.12276183537330
O         8.19630889087786       0.83762955776662      -1.26765286315352
O         6.69718123873814       3.31563659529898       0.63597757545631
O         4.35884152217169       3.22023793395302      -0.33386662862473
F         8.45419343206947      -1.12129913422337       1.11129101281721
F         6.46023869351181      -0.55125349333038       1.85151434461325
F         8.06509491778773       0.94765135756937       1.73017806407169
F         5.88773580843275       4.80761551391223      -2.10838912642290
F         5.96065472750424       2.82984345033368      -3.06687498126590
F         7.73201078150610       3.62581142460914      -2.03822654401970
