29
C9H14BF4N optimized with ADF in AMS.
N         2.03641318621465       0.44922426304985      -0.48256363606358
C        -0.36329831467088      -0.07009312381134      -0.10323353510627
C         0.99276141424794       0.19419619117356       0.53831114276259
C        -1.42436408885119      -0.35039617031972       0.96118511652072
C        -2.80056903911539      -0.62533913923536       0.36003550306779
C         2.46909448250484       1.70486757634744      -0.71031481046737
C         2.58796860308341      -0.60172282916556      -1.12329086432681
C         3.45687924323103       1.94854923321333      -1.64327178005369
C         3.57482910232353      -0.40796848106389      -2.06862793331172
C         4.01890329308536       0.88132749214728      -2.33423941263151
H        -0.29157457536410      -0.93313901070197      -0.78941945351930
H        -0.66143194720860       0.79989427267980      -0.71555562632616
H         1.36532802873185      -0.64926696959479       1.13719712482215
H         0.98202312517743       1.06905805291023       1.20013991797109
H        -1.10355435958376      -1.21301177950606       1.57120984303183
H        -1.48402407758284       0.51122058913907       1.64957422236115
H        -3.54309116899530      -0.82317172620945       1.14760903036086
H        -3.15590598567752       0.23471119348713      -0.22932774581227
H        -2.77504650192686      -1.50259937531189      -0.30565617771555
H         2.02158502207667       2.48274849998094      -0.09767876405624
H         2.23272586418270      -1.58403610975901      -0.82423471767152
H         3.80661706975945       2.96909774237944      -1.78936418780943
H         4.01956315080730      -1.27554826470108      -2.55366539062781
H         4.82590858869912       1.05027750162537      -3.04813469726494
B         4.30959479555475       0.06991797391364       1.66136003171962
F         5.04562859158824       0.43338197530560       0.49779190527664
F         3.57133729779639      -1.14294449671284       1.36505627519197
F         3.34883110824045       1.11314486752945       1.93029653590965
F         5.13806648527132      -0.13194754138917       2.76291527386811
