34
C10H22ClN optimized with DFTB in AMS.
N        -0.37694017652213       0.48241631463656       0.34441935649751
C        -1.37052477690033       1.39354436121648      -0.32636421246082
C        -0.31373934816141      -0.82753412785101      -0.38715051121333
C         0.95701083697061       1.18607121866740       0.25907981062940
C        -2.74709314025472       0.76506187054516      -0.48551746146998
C        -1.67825129440970      -1.48185423779188      -0.55465443986756
C        -2.63942827314007      -0.53847552206679      -1.27358590645800
C        -0.74389245024598       0.28589435636739       1.77043747709694
C         2.16267698400529       0.37935939050223       0.75477928340141
C         3.02754101250963      -0.13156068322553      -0.40660277335439
C         4.19787418519136      -0.96505012199080       0.10965695400991
H        -0.95798607997165       1.61396180718328      -1.31783818250159
H        -1.42040665305974       2.31050341454996       0.26557718382199
H         0.35889697734168      -1.48564305547032       0.16505635688686
H         0.10819682370027      -0.59989564641773      -1.37294959490715
H         0.84682849585735       2.10768826528222       0.83608975021360
H         1.09302644410158       1.44219116415245      -0.79739994394593
H        -3.36648470166046       1.48063130129645      -1.03237039025830
H        -3.22072660724800       0.58767783952568       0.48558089301197
H        -2.09350929509915      -1.78499087244385       0.41226656646581
H        -1.52929431993372      -2.38588220177949      -1.15078443723513
H        -3.62348990800024      -1.00416499852030      -1.36439812504645
H        -2.25895663831846      -0.32638376406061      -2.27703103550416
H        -1.72447494753163      -0.17777835442553       1.83805127391259
H        -0.00828303677051      -0.35741763308549       2.24799227450487
H        -0.76303149694478       1.25564767193313       2.26523050731722
H         1.85526164766696      -0.46243750841358       1.38146661232458
H         2.77022440840159       1.03739198849633       1.38425045107440
H         3.40516859713819       0.72321871943002      -0.97474941284281
H         2.42125228339125      -0.73712840902654      -1.08480449869702
H         3.83647958115481      -1.83285798747053       0.66412455466903
H         4.83397230677608      -0.37203766659705       0.76862105639630
H         4.80034900460012      -1.31492946752821      -0.72872113587454
Cl        0.46595257246597       0.94329679328051      -2.94886868769720
