29
C7H16BF4N optimized with ForceField in AMS.
N         0.15783374460670       0.28549889553234      -0.06894881851897
C        -0.45071645205640      -1.02131101810380      -0.43759215540840
C        -0.93696881572368       1.07129462146959       0.57698999341218
C        -1.95589068641532      -0.84596503684742      -0.43118697893759
C        -2.18715406411636       0.20547272791257       0.62106685939554
C         1.28389537740484       0.11226003182904       0.89877114267518
C         0.62196025043377       0.99660036443700      -1.28830458174759
C         2.47644226285296      -0.69457520297708       0.35790265550836
H        -0.20743771714419      -1.81129170231389       0.30992812098666
H        -0.11119880313441      -1.39534622571891      -1.43033523401188
H        -1.18049702332893       2.00392556309699       0.01594070590370
H        -0.68760223620196       1.40031867731445       1.61184388651636
H        -2.48227011523472      -1.79420322987205      -0.18623889604831
H        -2.29801116001908      -0.47199368274855      -1.42121365336156
H        -3.10761193637908       0.79366325746209       0.41482050868838
H        -2.27334043577173      -0.27857810111946       1.61946276094061
H         1.66663858804903       1.10680165340614       1.22255853355675
H         0.91670525456544      -0.39997355340138       1.81814915153475
H         1.35903888263536       0.39274028423194      -1.85977234120197
H        -0.22881413532750       1.19966656145100      -1.97727009812049
H         1.09369413112302       1.96907415600083      -1.02377956221384
H         3.16613316346543      -0.92382854062516       1.19726927057338
H         2.15354090725363      -1.65466124440701      -0.09314287677781
H         3.04648938597938      -0.10472329258908      -0.38931351577616
B         6.55142984278038      -0.03404265617943       1.02197644075184
F         7.94931854154826      -0.26490806134651       0.92251312197924
F         6.17955880344573       1.01150764971657       0.13559900578365
F         6.22629092907923       0.33673576676707       2.35389278874333
F         5.85144882263020      -1.22002037397790       0.67577594777466
