34
C8H18F6NP optimized with ForceField in AMS.
N         0.01699921834229      -0.00091763711245      -0.00296786735078
C         0.93133293445592      -0.84932459054338      -0.82731312285286
C         0.92182636376039       0.85274262249761       0.82670340387739
C         2.34209618481062      -0.31375078186076      -0.67891250319157
C         2.33850890351677       0.33285127370595       0.67774618543876
C        -0.81909320399424      -0.86308341668844       0.89427518301173
C        -0.81845300669701       0.85610425142443      -0.90560778897600
C        -1.81888678556252      -1.77237224910398       0.15562996804261
C        -1.82364722480115       1.76358506975131      -0.17304527608309
H         0.65010675029570      -0.88159321125799      -1.90454270352063
H         0.95158772371353      -1.90788050409946      -0.47884821351677
H         0.63910641900935       0.87678972475925       1.90376709651767
H         0.93210897946632       1.91305887945657       0.48351455247577
H         2.54149507176508       0.44966798118867      -1.46325136516267
H         3.10196946721985      -1.12342451260291      -0.74404115163304
H         2.54692764259731      -0.42808997828691       1.46214265442858
H         3.08918903712688       1.15111653768752       0.74264175379966
H        -0.16060492440248      -1.51281643978461       1.51573128987961
H        -1.39033806611722      -0.24283240571874       1.61894420222990
H        -0.16008726260307       1.50660857932683      -1.52625297491365
H        -1.38557837379860       0.23155523625517      -1.62992533720734
H        -2.27392094218031      -2.47714756912174       0.88300458391755
H        -2.64291542579121      -1.18080307947757      -0.29231138529878
H        -1.32510403155732      -2.36869789003440      -0.63813359862836
H        -2.29207551407892       2.45308776196415      -0.90635117135303
H        -2.63574827880822       1.16726049593920       0.28758598600124
H        -1.33309275513868       2.37617933338869       0.61002759350454
P        -6.25505764184249       1.76213272416709      -0.44225399977481
F        -7.44231804178881       1.95068509474397      -1.66965160201999
F        -4.98151782765427       1.67186180680479      -1.59170721683608
F        -6.01127328751997       3.46238791290158      -0.40644107722278
F        -5.19493070224621       1.60087888796566       0.89949861270833
F        -7.55093004253387       1.83458307870491       0.68340293232205
F        -6.36481145576344       0.05179523815999      -0.56125233691316
