24
C6H11BF4N2 optimized with ForceField in AMS.
N        -0.52594343217312       0.19663273969703      -0.36741760172987
N         1.66014941612821      -0.06425620793604      -0.06137295036651
C        -1.92637691398696      -0.09652311731883      -0.66125766886322
C         0.50956268437557      -0.66329398194044      -0.42405350473658
C        -0.01142149832832       1.37706132991472       0.03312170704682
C         1.34628489988530       1.21512081311758       0.22085052565617
C        -2.72834306430195      -0.20048599544824       0.63074480481492
C         2.97758781555379      -0.67820279358970       0.04506613379297
H        -2.34879947365654       0.70545972542239      -1.30446379906561
H        -2.00607881947748      -1.05877893950145      -1.21265872257868
H         0.42446333149625      -1.70410508317157      -0.70930273194375
H        -0.57977567176904       2.28630731592173       0.17878273560486
H         2.04890849223510       1.97079545309202       0.54669926758559
H        -2.31617738876753      -1.01109212526259       1.26896727911175
H        -3.78783236169577      -0.43397778589805       0.39493817040089
H        -2.68825857369042       0.75911536365243       1.18801008614868
H         2.92302215463076      -1.76204597927790      -0.19239231176010
H         3.67629199939413      -0.18747895224341      -0.66404545321486
H         3.36172006317237      -0.55881517121756       1.08004301900736
B         0.54377939255300      -2.83941231519620       3.06489527560399
F        -0.16248806803659      -3.90270376523592       3.68737306634012
F         0.40098200749905      -2.94187527543047       1.65717342261242
F         1.91977089875617      -2.91934567377248       3.40758664446492
F         0.01639346780400      -1.59666512727705       3.50641728156774
