41
C11H22F3NO3S optimized with DFTB in AMS.
N        -0.29615916863538       0.06606684199858       0.48146044587825
C        -1.07814359543593       1.33503879483274       0.28405592712153
C        -0.73200314862532      -0.96147511830465      -0.51382529780165
C         1.15005769671739       0.42306797957713       0.23422626424536
C        -2.58485543052591       1.12162148391901       0.31809719896012
C        -2.23270069096515      -1.22557292418655      -0.46335365797128
C        -3.01571705282635       0.06523728995657      -0.69794805694090
C        -0.46697871838846      -0.43125855306549       1.87456499704759
C         2.15974841474008      -0.66850653217627       0.57164556508852
C         3.57056751693367      -0.12596632205865       0.30418971409858
C         4.63338094035479      -1.15255366348908       0.68555281157445
H        -0.78014303444199       1.74134117803175      -0.68615291864502
H        -0.76681654582709       2.02386285772420       1.07395378085194
H        -0.17498475276625      -1.87827667165504      -0.31049442650695
H        -0.45224245456028      -0.58951432996564      -1.50358881146990
H         1.36162389541800       1.30672976755672       0.83998361811797
H         1.22842597542220       0.69715675145684      -0.82122363264464
H        -3.05423124476764       2.07945013458465       0.08021881376814
H        -2.91270695510256       0.83456280941277       1.32040258355235
H        -2.51031612055064      -1.66687015636491       0.49759078009515
H        -2.46738865212159      -1.95326754910644      -1.24458168426049
H        -4.08616759325196      -0.12977955353687      -0.60078125481743
H        -2.82570766933015       0.42920870053455      -1.71293609454071
H        -1.52438714199044      -0.50223007314553       2.11287064488505
H        -0.00930777192126      -1.41335669145316       1.96374772247283
H         0.01365988783897       0.27345994637155       2.55072213325222
H         1.98526181896601      -1.56752777389817      -0.02834973085471
H         2.08723663738686      -0.93845502565926       1.62771660866939
H         3.71490589093012       0.78597219306215       0.89098465475287
H         3.66886555547855       0.13223501826300      -0.75556682619910
H         4.51157394937463      -2.06954774212148       0.10643192566859
H         4.56228216805133      -1.39787430273485       1.74576324076472
H         5.62514996212244      -0.74585775248802       0.48968438271478
S         1.67754891280209       2.75671118510968       3.08566699155546
O         2.55543502850532       2.55790723039764       1.94286316211387
O         0.29676226937876       2.33964179082687       2.82470424729659
O         1.82069959608546       4.00238735493705       3.78381701965233
C         2.24427378553940       1.44288694470011       4.26975418212342
F         3.53553607520308       1.53092459731226       4.55075373849100
F         2.03537339834585       0.23738275180468       3.69747433758185
F         1.55968013483937       1.46162594393956       5.40540294115787
