49
C15H31NO2 optimized with ForceField in AMS.
N        -1.54824254963182       0.10333602280395      -0.08811205896184
C        -2.56626094212927       0.48348350650667      -1.12186976782380
C        -1.78514947860694      -1.31945639498065       0.32227089653225
C        -0.20443253921442       0.19305097166892      -0.75742686744781
C        -1.62393829622261       0.99442853867781       1.12251094738154
C        -4.02434920513128       0.26071954975366      -0.68370946257670
C        -3.22688512974824      -1.60667355603325       0.78771527503940
C        -4.24253363473612      -1.19171290845938      -0.27210847203470
C         1.01899716518439      -0.11354296008877       0.14235066329210
C        -1.27361046680258       2.47521159432626       0.88733218534086
C         2.32484296846816       0.03837931998963      -0.64862716710232
C         3.54160792811032      -0.28877142882854       0.22529017834777
C         4.84475623537463      -0.11909484235274      -0.56302816453937
C         6.05569690418123      -0.47355218698349       0.29449252637819
H        -2.41516532412767      -0.12152433773112      -2.04685306021536
H        -2.44665751876020       1.53941477553765      -1.44197120494654
H        -1.11297264939463      -1.61015593584722       1.15814847190995
H        -1.56347037537992      -2.01060296705912      -0.52368702396978
H        -0.06414217587146       1.19982498253835      -1.21046349650432
H        -0.16306430994757      -0.51359596212448      -1.61898022715379
H        -2.63559388977756       0.97947332351432       1.57094310194748
H        -0.96281547744960       0.61233622549255       1.93006215034524
H        -4.69562782488166       0.49458001499287      -1.53819833118778
H        -4.30830603340101       0.94650019181089       0.14083287683438
H        -3.44425074776461      -1.09299766602731       1.74747767574355
H        -3.33270787442563      -2.69670556991401       0.97789150901659
H        -5.27152922548043      -1.31459439551538       0.12946034260011
H        -4.14018370696258      -1.85086559209234      -1.16264334790205
H         1.06033655921559       0.58368494567785       1.00326384909267
H         0.96508751077499      -1.15373967198719       0.52383180405892
H        -0.23002425036815       2.60638584346655       0.53944579202196
H        -1.97519920222413       2.95655537613776       0.17818107943809
H        -1.36272927735260       3.01835822529276       1.85185307050357
H         2.41024013752174       1.08360971444882      -1.02002326349668
H         2.30850555608758      -0.64795490096268      -1.52402207269247
H         3.46310860552500      -1.33845174598207       0.58548567529099
H         3.55605337916629       0.38785053672166       1.10835175601810
H         4.83138824585751      -0.77996662947931      -1.45710328465623
H         4.94097989322948       0.93457612617006      -0.90521477651206
H         5.98822572297673      -1.52695977535339       0.64060998314104
H         6.98229699690200      -0.35678962345756      -0.30487510252426
H         6.11420216584965       0.19982634621020       1.17601164087610
C        10.39835742580358       2.53974590266670      -2.49059288555242
C         9.57213816220384       1.29282570088544      -2.51422615148734
O         9.17986616712001       0.84180459869697      -3.57794861484137
O         9.28820534917786       0.72316176795040      -1.47284731077601
H        11.33117856595436       2.37997694235201      -3.07113730184705
H         9.82455809848514       3.37529801624635      -2.94363682026617
H        10.66732513882260       2.81289730272296      -1.44764327193260
