58
C16H34F6NP optimized with DFTB in AMS.
N         0.19664255227739       1.88314376255247      -0.22372578987539
C        -0.43857480073852       2.76408748840325      -1.28338364713141
C         0.90543672757472       2.81800542448810       0.72880663811094
C        -0.86105386243442       1.13734412854314       0.53171201644063
C         1.18629531751444       0.95557000397760      -0.87336714783024
C        -0.00730047952924       4.19301877076589      -0.97758906305721
C         0.25842888288231       4.17767795063921       0.52302310527590
C        -1.62302181091590       0.11031553781522      -0.30467880451374
C         1.90926135950099       0.02864683869716       0.09832004965467
C        -2.80690938519341      -0.43416891790610       0.50348595326305
C         3.01012688991153      -0.71884078856063      -0.66535715850914
C        -3.57649457585036      -1.49004502813790      -0.29599724194534
C         3.79982987542661      -1.64150701381627       0.26592560110669
C        -4.76007034630513      -2.03892690241311       0.50707883120472
C         4.90510627172492      -2.37651614235437      -0.49921862668701
C        -5.52912239892469      -3.09265095185787      -0.28773571734725
C         5.70444363922485      -3.29575014113450       0.42259870959177
H        -0.10735540638399       2.43463894121098      -2.26709609747616
H        -1.52230025335851       2.65901221954128      -1.21302488302462
H         0.81963871809011       2.43904564329284       1.74698893971847
H         1.95560915114965       2.85694378841777       0.43889974347200
H        -0.37598897756185       0.63750589493515       1.37351198088389
H        -1.55011585045926       1.88783327283507       0.92931061573645
H         0.64933807822531       0.37689082750409      -1.62714807192417
H         1.91083737431902       1.59257038864067      -1.37854870246339
H         0.90712719811849       4.43584766375469      -1.52205355665330
H        -0.78765145355631       4.90200393826749      -1.25586024798984
H        -0.67367776274123       4.25872229076829       1.08990845082856
H         0.93321735092696       4.97671739248275       0.83047542760212
H        -1.99240215369299       0.56250196513579      -1.22862439987755
H        -0.96399469244662      -0.71854793957836      -0.57480003613235
H         2.36044999125825       0.60699294179071       0.90918632443041
H         1.21609144989470      -0.69382458260811       0.54059500396975
H        -2.43796544235795      -0.87564622765437       1.43541398944278
H        -3.47877846045860       0.38999027156046       0.76611467349667
H         3.68684710980530       0.00768466676007      -1.12361389313014
H         2.55595631888983      -1.30757119966299      -1.46939582852135
H        -3.94063361559669      -1.04527360191472      -1.22825272324740
H        -2.90011294950440      -2.31029995945420      -0.55900010037892
H         4.24596898015543      -1.04938560186538       1.07260259305414
H         3.12188334825888      -2.37115163426748       0.72396907527625
H        -5.43371877758739      -1.21624799403128       0.76969211090547
H        -4.39268829929613      -2.48114031078621       1.43929472975071
H         4.45774667339026      -2.96802176269286      -1.30511572925916
H         5.57800920067108      -1.64373921509999      -0.95574401967081
H        -5.92024434428441      -2.66449198427145      -1.21156625482212
H        -6.36494759905636      -3.46811520587685       0.30263454037328
H        -4.87827733588346      -3.93037542910032      -0.54145583796225
H         5.05376849912049      -4.04673041243852       0.87358716942310
H         6.48351942678442      -3.80636914521668      -0.14376116530345
H         6.17576789771314      -2.72078345427893       1.22100432182572
P         3.38383781689240       3.34980448984692      -2.85963680257061
F         4.89869088696966       3.83363801401604      -2.52994498443144
F         2.98516813873279       3.50447834405762      -1.22085705771591
F         2.88490290250212       4.89154287112371      -3.09165039985254
F         1.80162389624345       2.83030257394775      -3.12997236141892
F         3.71627505468211       3.15805573015706      -4.43556935030256
F         3.79110504688618       1.77019432405017      -2.54764710551249
