25
C7H10F6NP optimized with ForceField in AMS.
N         0.16762297065167      -0.00013395471909      -0.37038095202530
C         1.61215819546731      -0.00528247357726      -0.62991212174421
C        -0.49359081463314       1.19039384440314      -0.23748370710089
C        -0.50350885070192      -1.18518756357976      -0.23619758007541
C         2.38470391103206      -0.00627800294960       0.68448993075192
C        -1.86388968938584       1.21408772838454       0.03236765038791
C        -1.87433417397288      -1.19705154794631       0.03463647958608
C        -2.55534937876810       0.01190108343083       0.16744204384427
H         1.89788505880477      -0.90002212846359      -1.22649548582094
H         1.90359633586921       0.88693166339751      -1.22768601396445
H         0.03854985673638       2.12948427630289      -0.33357210268941
H         0.02105366479832      -2.12864853118997      -0.33204063510851
H         2.13203445852155       0.89920514806966       1.27589219813690
H         3.47562204810154      -0.00735520529826       0.47820594594824
H         2.12990590017831      -0.91129890413488       1.27560203276438
H        -2.38382847363834       2.15740614612121       0.13862374337029
H        -2.40224354280048      -2.13591517242503       0.14281759008608
H        -3.61621920572525       0.01906889944442       0.37539135414499
P        -5.41739418754765      -1.76584109922272       3.13820163154264
F        -6.75240225215081      -2.81635783315614       2.88485329508519
F        -6.46987195333466      -0.49404309324626       3.61298076286847
F        -5.34779934765027      -2.30827715450296       4.76660947494806
F        -4.07487720415017      -0.72086745584797       3.37759188301206
F        -4.32891573476125      -3.00494395739564       2.65793708509304
F        -5.57331101204036      -1.25937875839875       1.50526099975859
