22
C6H8F6NP optimized with ADF in AMS.
N         0.00226852825737      -0.12940812042614      -0.50690872529933
C         0.50551249262668       1.08082320124182      -0.18603122186824
C         0.71162563525767      -1.25546436740055      -0.28283500916703
C        -1.25804550205562      -0.20773239957361      -1.26608585583900
C         1.73641110659572       1.18901440099390       0.42809110844324
C         1.94658905965106      -1.19719460674732       0.32991884530369
C         2.47074200754448       0.03823257187216       0.69175214625912
H        -0.10199792640833       1.93954821033689      -0.46015322464967
H         0.26181006694033      -2.18230561287632      -0.62982132402322
H        -1.73353800116592      -1.17367918329144      -1.06518713003864
H        -1.91612799939313       0.60674556285966      -0.94461277510297
H        -0.99791901784952      -0.11038773592912      -2.32906324112303
H         2.12581985531920       2.18003848022358       0.65730066828430
H         2.50469072623198      -2.12079374284544       0.48015562213370
H         3.46053298938964       0.10671078169632       1.14533754591051
P         1.90422408520550       0.19036607586236      -3.63963824434302
F         2.72243871063322       1.47465569722002      -4.23475995966572
F         2.95325371996354      -0.86540575760541      -4.31678966808673
F         2.81559053327863       0.23092342875634      -2.24508784952652
F         1.03740184539604      -1.10488397967244      -2.98076971074506
F         0.80712716949127       1.24327039183826      -2.89568571839601
F         0.92206347089021       0.14054146436648      -4.95338128916034
