56
C14H28F6N2O4S2 optimized with ADF in AMS.
N         0.75812069781938       0.52148850015950       0.48163783473636
C         0.56673930762170       1.27713648715844       1.78973567821786
C        -0.51530179482676       0.55318674395708      -0.34890790021743
C         1.11220632239022      -0.91889909804438       0.78919319545108
C         1.86751165080953       1.21004470410748      -0.31240754079493
C        -0.54612778348687       0.78148316351627       2.69531787746583
C        -1.13721329394662       1.92532433487069      -0.55530566233755
C         1.50978439914696      -1.77994468784280      -0.39940799267516
C         3.25900981638453       1.15716790570926       0.29510467823429
C        -0.65930054657576       1.73363336933011       3.89009327513212
C        -2.31057423309662       1.81106807538928      -1.52797814082725
C         1.80282235186173      -3.20394755423347       0.07561898943824
C         4.23738341547980       1.80847578643553      -0.68520242418056
H         0.41200150273460       2.32470824044454       1.50509316536926
H         1.53234533157047       1.23901420345242       2.30951191757217
H        -1.22847163416274      -0.12263554374914       0.14779735263457
H        -0.25277494349804       0.10924369799585      -1.31996983264368
H         0.23160511913215      -1.34909941805312       1.28733142537054
H         1.92820720532426      -0.88287794036572       1.52635814238895
H         1.56205663280878       2.26168228306701      -0.40493409367550
H         1.85817569105844       0.74144357420886      -1.30852990781741
H        -1.51091052702822       0.75354351170164       2.16148867751547
H        -0.34204581505335      -0.23919418710804       3.05963838246993
H        -1.49137490945730       2.33837258072428       0.40177904086429
H        -0.39953815714332       2.64197019187562      -0.94537931799976
H         0.70336076712672      -1.80651660826398      -1.15014537011960
H         2.40528347863465      -1.36876302669714      -0.89161956530713
H         3.28454549778565       1.71577262522028       1.24410060900620
H         3.57569281429822       0.11928353239029       0.49402250549223
H        -1.43878659255956       1.38983680118061       4.58488185708814
H         0.29267753990523       1.79534405497767       4.43782857042509
H        -0.91011661572033       2.75216992885125       3.55923196825466
H        -2.77683394511493       2.79571741213686      -1.67465925856403
H        -1.98051846336014       1.44550498432801      -2.51301468279393
H        -3.08455470019958       1.12382033745671      -1.15052649843598
H         2.10277199937229      -3.83935335221293      -0.76989674970996
H         2.62050833137973      -3.21641257866817       0.81295171594602
H         0.91642370385246      -3.65982678273465       0.54348317749692
H         5.25882921293066       1.77746394906632      -0.28170700676343
H         4.23563926826470       1.28767582124986      -1.65631731438509
H         3.97724274726746       2.86452871056112      -0.85105010680423
N         3.07897073598426       5.59488097651613       1.03808633727375
S         4.24138395050699       6.21235641681857       2.00362598206725
S         1.89719681828843       4.70556947456558       1.60653547892092
C         5.39907349935645       4.74830164848708       2.39189872226791
C         0.64662469500679       5.82760021852508       2.51291633551139
O         5.05771761358862       7.07251874091194       1.16407889372100
O         3.76614605745039       6.65389332682814       3.30872315127754
O         2.25327676757317       3.70521490391658       2.62192202307652
O         1.10298229631890       4.24192966150443       0.45450015290567
F         6.65543429310494       5.22229807835940       2.56784093613504
F         5.42505217158656       3.85317063587443       1.36711106959164
F         5.03283118746467       4.09467262821844       3.51494356125795
F        -0.58218647183142       5.22340749079602       2.46756618810990
F         0.54403183489940       7.03136217929327       1.91291082631812
F         0.96870384067167       6.00042333333559       3.80666156774779
