52
C16H30F3NO2 optimized with DFTB in AMS.
N        -0.14668834941155       1.73832692276411       0.04852974955796
C         0.39554836570157       2.77349085076560       0.98662459246106
C        -0.81748272334406       2.55287266620923      -1.01187946275749
C         0.97155704224774       0.94470913470716      -0.57366686372337
C        -1.12885830718143       0.87316093584700       0.78157939671087
C         0.87564497600272       3.91358485834395       0.09645289903126
C         0.07390321079328       3.77801701266077      -1.20902475604749
C         1.69408735689320       0.00108954931397       0.38396633725015
C        -1.76163547575569      -0.22665350811369      -0.06233230233039
C         2.85776564384534      -0.68087678204920      -0.34105270446594
C        -2.60108473682704      -1.11778485632181       0.86306058597518
C         3.57921887515242      -1.64424852920252       0.60762579553009
C        -3.21370831823651      -2.29186561765575       0.09572988173112
C         4.73804464345093      -2.35100886384319      -0.09174692928419
C        -4.02826673958729      -3.19004540701425       1.02493566627910
H         1.16955749805266       2.33097509921987       1.61166240045886
H        -0.42562735806636       3.09232142144946       1.63096690699615
H        -1.80043262880860       2.84284397772918      -0.63367206333145
H        -0.94223522994717       1.95646757953400      -1.91572212981958
H         1.67684456626305       1.66915781953097      -0.98879743152680
H         0.54051208865672       0.37990882882704      -1.40435941520476
H        -1.90344720223414       1.53866074194325       1.17116240443713
H        -0.59291517805549       0.43346168391728       1.62573219667535
H         1.94699554083943       3.83408162688005      -0.09852281557975
H         0.69131355045803       4.87309927892776       0.58198024836807
H        -0.53924701510368       4.66084088901666      -1.39785863039961
H         0.74052294725405       3.63997672666227      -2.06273394537336
H         1.00922191683641      -0.76231401250423       0.75844794487775
H         2.07744258641343       0.55281232058603       1.24420817218711
H        -0.99212267636318      -0.84146049110431      -0.53568853790956
H        -2.38848115296492       0.20084323012421      -0.85228540008170
H         3.56172538901462       0.07565180999974      -0.70660101268565
H         2.47856836207977      -1.23226467210304      -1.20903473380941
H        -3.39590237397938      -0.52031920864492       1.32183233280200
H        -1.95660203835012      -1.49425574915159       1.66381595307506
H         2.86628204758354      -2.38740911234096       0.97760411265674
H         3.95748625732459      -1.08638597233515       1.46982347017838
H        -2.41406487810796      -2.87904688482170      -0.36855911874645
H        -3.85819496076994      -1.91215507753190      -0.70542146181780
H         5.23316255625420      -3.02877080064686       0.60351862642893
H         4.37692328352797      -2.92979688507699      -0.94335185185611
H         5.47002916187768      -1.62563132181676      -0.45055177602208
H        -4.45285003662287      -4.02240013514484       0.46326042834062
H        -3.39501213033036      -3.59071281330445       1.81696435774334
H        -4.84292035166069      -2.62743941703676       1.48298847369960
C         0.64571950199324      -0.21091475594841       3.51553687241913
O         0.85583585827554       0.97917742514126       3.25827637463273
O         0.07832310864778      -1.07688840595927       2.84662862466284
C         1.22008218012168      -0.71637633789497       4.92108590893440
F         0.29364375852218      -1.36948822853078       5.64240680436720
F         1.67747970042738       0.28631002735843       5.68554266180148
F         2.24894293729728      -1.56855600496096       4.73941366130332
