46
C12H26F6NP optimized with ForceField in AMS.
N        -1.62151548716180      -0.29318926340075      -0.18392356358991
C        -1.90930933142210       1.11871974660838       0.21561654033689
C        -2.63043972199824      -1.21936813763009       0.42200791334950
C        -0.28467123208485      -0.71017807484053       0.35594669443168
C        -3.35620113100140       1.55749746275869      -0.06968452965388
C        -4.09347898593671      -0.82417006770413       0.15421054410451
C        -4.35425618215361       0.61273326866637       0.58966943715614
C        -1.62719192860512      -0.43832615581878      -1.66607360570633
C         0.93675390908189       0.07068123625355      -0.18886350463640
C         2.23418014666229      -0.45607385454956       0.43899667737968
C         3.46084655002088       0.27136996388207      -0.12437451262783
C         4.75349754243319      -0.27530249297046       0.49279774051759
C         5.98192482968296       0.43036612562994      -0.07396715044505
H        -1.24350272451334       1.82717849518609      -0.32323756017727
H        -1.71884079939444       1.25796687418941       1.30480741841881
H        -2.50358504168520      -1.25712924091586       1.52950232211760
H        -2.47900310870686      -2.25931633551525       0.05144860867522
H        -0.27775343636134      -0.60922626778184       1.46652236342683
H        -0.11439620026401      -1.79180766170648       0.14321145433275
H        -3.51097923856715       2.58082301216153       0.33574296497315
H        -3.53973947930668       1.60480801984818      -1.16358440145266
H        -4.35877364258240      -0.95702330577565      -0.91443302418347
H        -4.75812535979988      -1.50182176396248       0.73088599341304
H        -4.26777959997796       0.68946265994147       1.69668147723469
H        -5.38689294777506       0.90513104429772       0.30208680569964
H        -0.99294469107048       0.33114662058402      -2.15486166497275
H        -1.26205994518764      -1.44428610626825      -1.97177103116058
H        -2.63671276084557      -0.30908927730630      -2.10050285876353
H         1.01464820029991      -0.05259804395105      -1.28839148418199
H         0.84680965371602       1.14989515632755       0.05102191319680
H         2.19402621057250      -0.31147506264044       1.54119903984174
H         2.32760163633740      -1.54453929121775       0.22894847503848
H         3.37734862655600       1.35860717745508       0.09566850139623
H         3.49469029091314       0.13435307967622      -1.22788198795711
H         4.83907354104700      -1.36343710390333       0.28180433008193
H         4.73374472418162      -0.12999167512730       1.59468168388495
H         6.04478557615429       0.27599261585037      -1.17251239730335
H         5.93823833107779       1.51907937777501       0.14316747168536
H         6.89802476838966       0.01176649079914       0.39508964429692
P        -6.34024367226641      -1.65667754695409       4.26395817914780
F        -6.34654611798229      -2.19424839829832       5.89556626665642
F        -4.72325267547042      -2.17749358215103       4.00727342640181
F        -6.85978702547580      -3.20924661143760       3.74381037843629
F        -6.47809007338921      -1.06858736208181       2.65709139619997
F        -7.95934180952291      -1.13341491141894       4.49842290926915
F        -5.71327310481767      -0.13767286326272       4.76409066321053
