34
C10H21NO2 optimized with ForceField in AMS.
N        -0.35778121460259       0.36630958445376       0.05336550883625
C        -1.39224314702288       0.60786022027508      -0.98710885302647
C        -0.82958884845348      -0.82991963536868       0.81040978643233
C        -2.67698454979887      -0.03337774492869      -0.50606047409847
C        -2.20247678274191      -1.22814605155931       0.27968320896565
C         0.95965534536828       0.11906841561653      -0.60842150335481
C        -0.28691663905596       1.55402216529782       0.94419181506675
C         2.14577585392926      -0.04125410991375       0.37071145772415
C         3.37603319808317      -0.59303813673085      -0.34479649784166
H        -1.12344458253414       0.12524521265153      -1.95621328894947
H        -1.55116862301904       1.69023515441749      -1.20148575126835
H        -0.91476395173867      -0.62979616001021       1.90299888974979
H        -0.14756500501324      -1.70337503205426       0.70393603475696
H        -3.33330099744118      -0.33165635641803      -1.35272231007653
H        -3.22410684520853       0.66669208736603       0.16268050713491
H        -2.90774505519008      -1.48098920062272       1.10084209665080
H        -2.10244409208252      -2.10287410399265      -0.40116115559388
H         1.19851765905456       0.95888089647265      -1.30125170140999
H         0.89216992948828      -0.79957668954217      -1.23720143398895
H         0.11992626886031       2.43596319661650       0.40018188615229
H        -1.29423360095407       1.82268301591145       1.33373051358051
H         0.35913722491002       1.36210432504515       1.82707765014263
H         2.41334819412956       0.94696744795211       0.80220216598485
H         1.88716168705394      -0.72650779656198       1.20423701309828
H         4.22455055590263      -0.65806649125623       0.36832352280748
H         3.16761269976675      -1.61044693733511      -0.74007360947064
H         3.66642614105161       0.07426038290272      -1.18419932041365
C         1.85158661606598       1.07016200730002       4.51146217506027
C         1.12868769069916      -0.23303963301628       4.37890905970231
O         1.74640972832011      -1.24609450070061       4.09459094428504
O        -0.07753998282934      -0.28821976373374       4.55588668756098
H         2.61153955558248       0.99493442499118       5.31741435633904
H         2.35815196383720       1.31564232525808       3.55462535206488
H         1.14251604018320       1.88817514091718       4.76201146559673
