35
C9H17F6N2P optimized with ADF in AMS.
N         1.69414835720908       1.39079862360436       0.23764260469220
N         0.12195095348394       0.04239925956770      -0.40593398805846
C         2.98914496299098       1.85759846783023       0.75876287323448
C        -0.64066696092980      -1.19640113791151      -0.61959895444219
C         1.28255732091917       0.11698127943093       0.25692975433870
C         3.88918847351576       2.37699224838160      -0.35925603813733
C        -1.64645461358951      -1.44958710653378       0.49953734347501
C         0.77391405933010       2.15108370584690      -0.45817039400929
C        -0.21788101369643       1.30188354716424      -0.85715693106317
C         4.18772492390547       1.32748389518336      -1.42282854915188
C        -0.99048187502321      -1.67095331612068       1.85892027580686
H         3.44880547125277       0.98745673289682       1.24865147900291
H         2.78693666410324       2.63298928352149       1.51366962343895
H         0.10168482547123      -2.00530846336370      -0.68489053532552
H        -1.13595997538539      -1.09546714766991      -1.59615201436030
H         1.82950475360387      -0.71850981085770       0.68268435388693
H         3.43335965254270       3.27688996547453      -0.81108970527818
H         4.82205195864780       2.71678195856285       0.12353283571973
H        -2.36746589806972      -0.61376663045407       0.54649764083205
H        -2.21839734853180      -2.34681654642888       0.20744342359892
H         0.90575938903640       3.21347866873354      -0.61952231400435
H        -1.11845883189885       1.48234086867263      -1.43174626047939
H         3.26934134308175       0.97963205308701      -1.91884072738238
H         4.66701603490406       0.43930874022780      -0.98659806409853
H         4.85346644528027       1.74278950916608      -2.19303201940369
H        -0.49485430397614      -0.75732642027001       2.22210164547637
H        -0.23478790024948      -2.46934167946350       1.80339494397850
H        -1.74286801279231      -1.95527133904388       2.60911056304962
P         3.34306315454060      -2.70661763369742      -0.51221290893370
F         4.08395581810680      -3.73277607309703       0.51701367976228
F         3.74742331806595      -1.41459692990472       0.50574705055343
F         4.72050639747183      -2.46141322662884      -1.35830327252420
F         2.54107678391685      -1.61460092404502      -1.50224173297808
F         2.87519346095363      -3.93085660930151      -1.48728043588002
F         1.91060989060841      -2.85751208975991       0.37402883736372
