32
C6H12F6N2O4S2 optimized with DFTB in AMS.
N         0.37502751113476      -0.97465910652269       0.92968377107056
C        -0.46080612802839      -2.05240932568616       1.52953756704510
C         0.77018706606370      -0.01076501222776       1.99432680828428
C        -0.40885717050244      -0.27123572739819      -0.11813018988121
C         1.59914961176795      -1.56124902399907       0.31493709534786
H         0.10247420353251      -2.50583110378220       2.34426705981798
H        -1.38482668583988      -1.61554330070414       1.90323355318276
H        -0.67102774671487      -2.80226255445216       0.77036549682928
H         1.40088217826057       0.75985872179530       1.55575729439827
H        -0.12815347675332       0.43539243924019       2.41663048183817
H         1.31806706169414      -0.54495730761225       2.76987794832782
H         0.20103974710558       0.52240375823791      -0.54568727907781
H        -0.68220117566525      -0.98718124945006      -0.89101515407254
H        -1.30578593592552       0.15117334938803       0.33115133097081
H         2.14153689412719      -0.77690781751992      -0.20929949592636
H         2.21647728975888      -1.97692315912543       1.10891133067637
H         1.30707533277088      -2.35089656364751      -0.37379495687470
N         2.02516426217581      -2.93684770574883       3.06178305491761
S         3.04834307277830      -2.37458426873659       4.16900749574315
S         2.34826497243086      -4.32858700156440       2.31894346479084
C         4.62481678619801      -1.87847187224056       3.27878406847263
C         1.99301818894845      -5.73038622231305       3.51208998945931
O         2.48600434946584      -1.10067328303407       4.56076089385466
O         3.43197888470846      -3.31190795547282       5.18825621274907
O         3.71697049231913      -4.48792388702373       1.89885149158569
O         1.31093434564724      -4.44268466134458       1.30973109434575
F         5.15357177514414      -0.83438706884930       3.89524244204801
F         4.30166511343728      -1.50238006415447       2.03580209807530
F         5.51215483241078      -2.84344540190022       3.22484531827888
F         1.59425027381297      -6.78465089592058       2.81976132413475
F         1.02129766156172      -5.36780373552730       4.33480229406126
F         3.06531526097449      -6.04529299850341       4.20345819292646
