61
C17H24F18NP optimized with ForceField in AMS.
N        -0.84526238505609      -0.20410764558648       0.02071869894936
C        -1.17546914143108      -1.24582292422509      -1.00093913781206
C        -1.98823314547668      -0.23273286803832       0.98415119171257
C         0.41894998029698      -0.56733010595559       0.74069196209365
C        -2.60082732160211      -1.70907514736288      -0.76491566709584
C        -2.81078748943521      -1.47463772405672       0.70399479985091
C        -0.76183040609609       1.13768294176283      -0.64326159550491
C         1.69101740669262      -0.53942002749955      -0.14003463540987
C        -0.40414408451350       2.30268641791309       0.31022739948468
C         2.89523489138212      -1.09060439305265       0.63164447034827
C        -0.50412111497779       3.64557527557260      -0.40734700914408
C         4.16473296673541      -1.04239899780418      -0.21247637709284
H        -1.06582138985639      -0.88560140767853      -2.04933103645841
H        -0.52580918261899      -2.14666940197080      -0.91069444942305
H        -1.66714885051606      -0.22392497574495       2.05070263625786
H        -2.66923971677539       0.63991064671797       0.85422525324544
H         0.31512021981272      -1.58713224714995       1.17978253096061
H         0.58263660258839       0.10958499673482       1.60820529610637
H        -3.30510657021897      -1.07919284516498      -1.35240487286187
H        -2.74145540675548      -2.77897881143916      -1.03264454004294
H        -2.40892101403059      -2.33361648188647       1.28588004910545
H        -3.88568462712624      -1.32617915515481       0.94599381124265
H        -0.01638072316639       1.11915717738296      -1.46876656310655
H        -1.73599839543873       1.36981042035265      -1.13369563389562
H         1.54536252803605      -1.14334558916061      -1.06006158555571
H         1.92198524307379       0.50356003457870      -0.44153155626294
H        -1.08450196815513       2.32135768867612       1.18682257539657
H         0.63607761631017       2.19587101185629       0.68101649014706
H         3.05556791740471      -0.48953280794550       1.55332666147151
H         2.70206555215806      -2.14479086000230       0.92742391466286
H         0.19322172291171       3.67277290538075      -1.27177679558167
H        -1.54132020810806       3.81624947813307      -0.76634058415241
H        -0.23262342725878       4.46320277299542       0.29331737889874
H         5.01343086628900      -1.43333481055960       0.38511052825169
H         4.04900821573298      -1.66931871484353      -1.12230947255832
H         4.39235659476089       0.00282247302682      -0.51202293788741
P         8.85316926661323      -3.07840032025933      -2.55939240080723
F         7.15955760841835      -2.84108585243704      -2.76093354597474
F         9.21378028112340      -3.88384325094850      -1.07822735229788
F         8.73009694402783      -2.55111272349098      -4.19249613730031
C         8.26625919095193      -4.89112140687723      -2.91859352235199
C         8.38911193200595      -1.53248027325213      -1.49149521214359
C        10.70467088614441      -2.75110217785192      -3.00825998123203
C         7.54376381585440      -5.15862708426358      -4.26689755291669
C         9.49930009707330      -0.92229354410811      -0.61036634955134
C        11.39726465382765      -3.77557941410675      -3.92824075862683
F         7.38317605258598      -5.28464898749654      -1.92025550712665
F         9.34625200878155      -5.74856335395298      -2.85335591709608
F         7.35994481321711      -1.86623345193953      -0.61762357336218
F         7.93746458460630      -0.52475318266410      -2.33239761749391
F        11.44642997942789      -2.73296452855552      -1.84082899892889
F        10.83131015365972      -1.49959743566292      -3.59572966462817
F         7.34654410342118      -6.52196925725621      -4.39976633596365
F         8.28090270298255      -4.73585194046706      -5.35202157720783
F         6.30060588802966      -4.55277791093541      -4.30622520693741
F         8.93830914159768       0.05554290050529       0.19311066074616
F        10.06919449544221      -1.87069750743865       0.21825395662179
F        10.47712503463134      -0.31608812295892      -1.37326780200175
F        11.64662152995620      -4.95388119826611      -3.25080908498169
F        12.61853959641380      -3.26211973892018      -4.32765564719150
F        10.66079562543453      -4.03568465419700      -5.06249701868536
