43
C13H27NO2 optimized with ADF in AMS.
N        -1.28402587248755       0.08030096278281      -0.19471966289844
C        -1.54799736043208      -0.97537501310712      -1.29287276350810
C        -2.40200172603611      -0.13438023219949       0.83534350212676
C         0.06030517059234      -0.17701114089846       0.46090822244441
C        -2.97442817027788      -1.44116782295459      -1.06474381495638
C        -3.04557106686520      -1.45630860127065       0.46090238034330
C        -1.37218800952480       1.46026844624115      -0.79413996484052
C         1.24667344207221       0.02255794547441      -0.46157559297493
C        -1.13441985099707       2.58764809687825       0.19003535160937
C         2.51671373822906      -0.48188876494598       0.22681707061607
C         3.75353844006938      -0.32648720050181      -0.65326179730433
C         5.01375658698050      -0.86207998948945       0.01987442135975
H        -1.35075609124344      -0.51207524566314      -2.26801182403963
H        -0.83951051205806      -1.80988406872230      -1.08447543506472
H        -1.96474479031981      -0.09877656471157       1.84165497759648
H        -3.10848688544494       0.70007839352241       0.71847429320561
H         0.11763464354669       0.47316844010211       1.34645203904713
H         0.03643104825536      -1.24409795309364       0.74776891083908
H        -3.72152645565999      -0.75940626589280      -1.50923521053622
H        -3.09980848786766      -2.45410500413117      -1.47472842095197
H        -2.44259332269705      -2.32189674061496       0.79279560627712
H        -4.06569780475423      -1.53263116646598       0.86489714312104
H        -2.37574475346227       1.52427053464672      -1.24411927307915
H        -0.63584987432954       1.49542012508431      -1.60894316384649
H         1.37327276571884       1.08216515941946      -0.74833770084385
H         1.09804934767307      -0.57726518670514      -1.37456459746370
H        -1.81291045529526       2.53926889722421       1.05349873881356
H        -0.09833330107759       2.59753103817433       0.55614738381197
H        -1.31637751569503       3.54311156343295      -0.32500231404791
H         2.36179524988310      -1.54938047741035       0.46180304740771
H         2.67227420457523       0.05932556930497       1.18023878611317
H         3.58195904032492      -0.86930261821365      -1.60062983232943
H         3.89457131818576       0.73845815087986      -0.91808404906278
H         5.89581783118209      -0.74947400674030      -0.62922018919670
H         5.21568022532357      -0.32730574575908       0.96239110073107
H         4.90000435793911      -1.93145698103968       0.25835424330404
C         0.53371424733943      -5.33757677183915       0.13543572323957
C        -0.21347145021510      -4.01323155282768      -0.07745437080117
O         0.52293428680825      -2.99394582184127      -0.31382655609577
O        -1.47304816880020      -4.02701126930315      -0.00521177900895
H         1.16204615617520      -5.55556863861298      -0.74202511321240
H         1.21254739824474      -5.24378841181470       0.99780704985805
H        -0.16597731587802      -6.16669285419770       0.30727190529828
