41
C11H22F3NO3S optimized with ForceField in AMS.
N        -1.44996394333713       0.40974902900040      -0.08714142570583
C        -1.77122047165826      -0.85681859080669      -0.80890580350651
C        -2.54461130400381       0.59642710586032       0.90734297319070
C        -0.14283056390548       0.31316705003718       0.63476728573017
C        -3.00300775477722      -1.47466509331010      -0.16684214772052
C        -3.68498988537467      -0.32575498804370       0.52608707480363
C        -1.45233985065969       1.55926001346222      -1.02949600710228
C         1.10072193040226       0.28819753535053      -0.28494437016676
C         2.35771436241168      -0.10077658289335       0.50265688740292
C         3.59852646657524      -0.07361235907109      -0.39736261113701
C         4.85308747488882      -0.46217429305649       0.37924688387857
H        -0.94479074559205      -1.60084626827541      -0.77815886059531
H        -1.99517578206736      -0.68010779505110      -1.88710236120242
H        -2.90610508211741       1.64918018410114       0.97121055472194
H        -2.22485370933596       0.31684535908780       1.93710710937917
H        -0.13771881394707      -0.60359704083999       1.26968875091020
H        -0.02893637653241       1.17797700401513       1.32878531878932
H        -2.69287931518238      -2.23398603215080       0.58561159006810
H        -3.66889235159954      -1.94980650176719      -0.91960290214507
H        -4.37023512962251       0.19074475159614      -0.18142618851393
H        -4.25452069740787      -0.66721048360881       1.41803722205090
H        -0.77277792512487       1.37929488873523      -1.89111639930590
H        -2.46932138536617       1.72796914780994      -1.45019752601037
H        -1.13077133538624       2.49365555592074      -0.51742105008855
H         0.96175907941031      -0.43023355390648      -1.11939826558444
H         1.25691671992350       1.29983152613876      -0.71841600462561
H         2.22860497220077      -1.12398394877399       0.92000696775080
H         2.49853025381165       0.60997368863221       1.34696736376130
H         3.73630287697149       0.94783152697268      -0.81450270518180
H         3.46423799765855      -0.78363169927746      -1.24242530096824
H         5.02246078108836       0.24625544191584       1.21790517822028
H         5.73346947356138      -0.42893590188524      -0.29670249271688
H         4.75356381865193      -1.49236572834507       0.78252406152043
S         0.65136863486284      -1.86797550588014       4.66439186882990
O         0.65904410806449      -2.58675432828977       3.30762150095772
O         1.70799112114103      -0.76867195504144       4.48353293880299
O         1.34781827420798      -2.87150896311756       5.59487081108193
C        -0.97410528989498      -1.29452760611906       5.22908692334588
F        -1.83447048700625      -2.37014202460381       5.32809530984928
F        -1.48050228869109      -0.38310316349435       4.32524145134884
F        -0.84750332714183      -0.69195699532717       6.46508783758244
