20
C6H11ClN2 optimized with DFTB in AMS.
N        -0.34101097923292       0.34948421314751      -0.20323199287602
N         1.72499122258411       0.00508523845639       0.34581975417392
C        -1.63199216155130       0.09434119032656      -0.83103154669585
C         0.59982023030573      -0.60224956019960      -0.07065916011997
C         0.25632004493104       1.58582458807693      -0.06984971944552
C         1.54725040839913       1.37173755414963       0.26733485478558
C        -2.54515483881397      -0.68786426081233       0.10430352592778
C         3.00718425857014      -0.67559078118840       0.36205821232760
H        -2.07667534364341       1.05880338946773      -1.08683724674327
H        -1.43183707171749      -0.47001145079057      -1.74936753300788
H         0.38979867828831      -1.64503639902301       0.08256968419904
H        -0.29607962528028       2.49842573879170      -0.20895122153411
H         2.34539291852995       2.06026234980674       0.48189702138901
H        -2.11188655967481      -1.65942533517850       0.33896772919158
H        -3.50813028516672      -0.84261327940288      -0.38022618047321
H        -2.70052112887213      -0.13873971698633       1.03295466268646
H         2.95882963689432      -1.52956719061944       1.03751329593262
H         3.21610267089159      -1.02102038886200      -0.65416349764139
H         3.77762531766578       0.01737152547227       0.69351109618979
Cl        1.08905463759292      -1.17411500833239      -2.30173996506617
