45
C13H23F3N2O3S optimized with ADF in AMS.
N         1.29606990910304       1.92493400180267       1.12073907566835
N        -0.29948675267698       1.68440765185532      -0.32687688675266
C         2.63448132378722       2.14802412483240       1.69072261945227
C         3.10746457593469       0.96339253522961       2.52745074269631
C        -0.99540534021054       1.63001465697864      -1.62653905803358
C         3.18720740553127      -0.32585159420142       1.71871067226269
C        -1.82071230729778       0.35960770091866      -1.77748912535985
C         1.00487065590729       1.95513864257923      -0.18656578150768
C         0.15369306757031       1.60445525175392       1.83035815823509
C        -0.85068010285010       1.45440890661139       0.91908962817502
C         3.71981279224652      -1.51850398540777       2.50504980890785
C        -0.98500584217336      -0.91798241831885      -1.74900119234730
C         3.78175122652497      -2.77185702134570       1.63364290576177
C        -1.85136469068512      -2.16927063484161      -1.84737120331082
H         2.59438340158296       3.07817838360119       2.27922932637058
H         3.30611505049372       2.30071435486663       0.83369507217047
H         4.10313756832861       1.23213927356198       2.92344782374259
H         2.45311982738659       0.83461040082235       3.40935313761318
H        -1.62253960734674       2.53284854134138      -1.70249996966042
H        -0.20168306564375       1.67732416230397      -2.38899085246616
H         3.82246764220769      -0.16038835413178       0.83373738456939
H         2.19403680675653      -0.57459889330202       1.30949409588915
H        -2.35684264794143       0.44080026690193      -2.74002857230635
H        -2.60730684385692       0.32390276766191      -1.00019714480515
H         1.68303869219160       2.11742457401938      -1.03199227883488
H         0.15306532885187       1.51085440746697       2.90874557340233
H        -1.89501728788985       1.20386479431379       1.05301812773036
H         3.07730622462772      -1.70282259979592       3.38652177347650
H         4.72745184036099      -1.28377513558346       2.89403792201324
H        -0.25645243193709      -0.89509454713936      -2.57637327038140
H        -0.37614149472942      -0.95018255529912      -0.83068793785619
H         4.43073530220108      -2.60473006983933       0.75915179081423
H         2.78176940412176      -3.02696138821778       1.24765673367977
H         4.16805068117711      -3.63658821747089       2.19233329081262
H        -2.56164572167211      -2.23018453107278      -1.00583806232147
H        -1.23095538431848      -3.07675597738699      -1.83468297966592
H        -2.43642286750908      -2.17479040376650      -2.78108054668121
S         2.70589228833778       0.21094974228905      -2.50140302138740
O         2.17809773477724       1.56694912104079      -2.82015638896961
O         2.73809629228228      -0.74115387832579      -3.60735453602628
O         2.22208356124654      -0.30103782430782      -1.20186926732217
C         4.51423942352676       0.57497185958096      -2.13899213995296
F         4.62812645503934       1.61609333370765      -1.24323425787421
F         5.19301857220143       0.92401173620223      -3.25540484338053
F         5.13712253783385      -0.49682943278913      -1.58054402393956
