46
C14H26F3NO2 optimized with ForceField in AMS.
N        -1.62703770385568      -0.29273459404941      -0.17804649858966
C        -1.90796556781851       1.12023207609667       0.22167114358005
C        -2.63734085239012      -1.21495164600602       0.43301931567107
C        -0.28798799786942      -0.71446054042922       0.35395077156888
C        -3.35305081080425       1.56426449335570      -0.06432592156640
C        -4.10234690735563      -0.81066200843084       0.18115699373220
C        -4.35041125623167       0.63053425177555       0.61167586600212
C        -1.64054388653181      -0.43811743796530      -1.65970143224260
C         0.93233731232336       0.06729065332712      -0.19312625019438
C         2.23342496935280      -0.46104999458694       0.42709261857779
C         3.45740841862491       0.26741324515570      -0.14125784505102
C         4.75331378995622      -0.29269085097058       0.45612156056947
C         5.97624420221826       0.43538452837721      -0.09271500155236
H        -1.23924618914805       1.82658927028633      -0.31563406871043
H        -1.71835005275124       1.25760734292228       1.31127153728911
H        -2.50114020270977      -1.25715070181821       1.53904621969054
H        -2.49461886776335      -2.25432857497218       0.05814360384729
H        -0.27470498899143      -0.61937499770347       1.46486361573453
H        -0.11991629025127      -1.79488214525998       0.13467085979047
H        -3.50026990703534       2.59365997129455       0.32819835362474
H        -3.54282863857326       1.59939638827218      -1.15808978380976
H        -4.38170758427618      -0.94755864141685      -0.88370775717494
H        -4.76589353529313      -1.47933878640669       0.77121812450723
H        -4.24961097820896       0.71283957313863       1.71625803939844
H        -5.38497314855513       0.92819947034843       0.33653774321214
H        -1.01554565816581       0.33720247263384      -2.15160746696809
H        -1.26824622980339      -1.44054716641718      -1.96738315125956
H        -2.65485155080958      -0.31998925316926      -2.08703999766669
H         1.00539999959557      -0.05081068708333      -1.29372032869539
H         0.84627099837008       1.14576751273855       0.05172975754289
H         2.20063198295130      -0.31702536728707       1.52965835659233
H         2.32620996199064      -1.54941461493667       0.21670841549878
H         3.38112313150246       1.35237369544047       0.09231460392517
H         3.48115295443388       0.14424778936199      -1.24658601048059
H         4.84076031686409      -1.37471905055671       0.21579028918105
H         4.73495849320330      -0.18048879621463       1.56056697382470
H         6.04069281897294       0.30335420271040      -1.19382325082450
H         5.91967078550880       1.51896593714356       0.14525651669028
H         6.89548943805272       0.01819111324735       0.36981848704557
C         5.78790053655864       1.77279788741873       5.84736952908609
O         6.45231411607445       1.40814396152106       6.80452386027675
O         4.92988012263166       2.62743393046980       5.99967526955476
C         6.01578628833750       1.17653601201764       4.48973713943134
F         4.84596274029191       0.59077338662895       4.04450388548174
F         7.01082781536502       0.21560628530785       4.53899689143856
F         6.39293344461248       2.17003629609000       3.60518149982029
