33
C9H10F6N2O4S2 optimized with ADF in AMS.
N        -0.27524017701892       0.41130558921367       0.00142032954644
C         1.05488418168966       0.37667751359714      -0.66453078363920
C        -1.23965559347359       1.23119758479703      -0.47216553561703
C        -0.46687848752741      -0.29806433208840       1.13365521112540
C         2.00456291532560       1.40627817239847      -0.07981926865857
C        -2.46676644847662       1.30608847528811       0.15339566909565
C        -1.67575050905465      -0.24985421315950       1.79839829402406
C        -2.69337273613283       0.55730746249700       1.30464497737542
H         1.43392526513504      -0.64946972438132      -0.54692938198874
H         0.87145083199057       0.54385434763957      -1.73629854117055
H        -0.98387522164572       1.81890150689774      -1.35087035047367
H         0.37893484442742      -0.88488713919261       1.48345793748502
H         1.60609943550853       2.42277641479353      -0.20134432824372
H         2.97170193995237       1.32565292993379      -0.59706633503373
H         2.14956130031897       1.24139451721677       0.99694327874959
H        -3.22433441916800       1.97920856562420      -0.24307625773865
H        -1.79468073294850      -0.81614353266695       2.72102535814912
H        -3.64560423897095       0.63097966777314       1.82989055610556
N        -1.42705713505235       3.11709199139570       3.39155787777520
S        -0.07832307467891       3.02867856214959       2.53623349504177
S        -2.33167344250837       4.46096757967332       3.46645121006903
C         1.23358387246144       4.19688043658024       3.27874692940788
C        -3.59982053184997       4.26369961022255       2.07158711473570
O         0.48982185856924       1.70065307301870       2.81036602038509
O        -0.16738343182217       3.45824230259546       1.13332722547100
O        -1.62840376032102       5.69104959142512       3.12785208121266
O        -3.16638963470492       4.36368009491675       4.65148668487762
F         2.45532720087969       3.65908289925511       3.00776345099571
F         1.09148786692698       4.29299642081059       4.61595378764556
F         1.18844357231195       5.42294466918899       2.73321147095532
F        -4.49242274074760       5.27564762517776       2.13042409600263
F        -4.28939729802817       3.08915141988810       2.19335939986991
F        -3.02776045056679       4.27731520572062       0.83900262736251
