29
C9H17ClN2 optimized with ADF in AMS.
N         1.11151719315646       0.27656151983428       0.42554372562275
N        -0.78301489868397       0.32783701736859      -0.63616012004322
C         2.33378316892518      -0.21442708410533       1.08601982330767
C        -2.09519772895195      -0.06989728610692      -1.14727055639334
C         0.08820320978461      -0.47479693936916       0.00056800096803
C         3.44577128869710      -0.44635600775528       0.06797514296445
C        -3.21569713659470       0.28144520076141      -0.17032307210981
C         0.91207873524359       1.59445789375189       0.05492369931879
C        -0.28611466757760       1.62034303788233      -0.60443062275090
C         3.09122428247727      -1.42731550077037      -1.04322522407474
C        -3.09316046629212      -0.44278428922480       1.16603139321846
H         2.05879718341075      -1.12928467449807       1.63559664495153
H         2.65377610027000       0.59669809155872       1.76987050857349
H        -2.05945504014784      -1.15461489287516      -1.33370558765050
H        -2.23551085112500       0.43299235466529      -2.11665503278208
H        -0.02227479123415      -1.54313257388745       0.13810688744386
H         3.72644219274281       0.54715500706635      -0.32671852230788
H         4.31964005891750      -0.80195000590102       0.64055711451628
H        -3.22139162018907       1.37441996586811      -0.01121739150696
H        -4.17171367775532       0.02724486945562      -0.66114257786297
H         1.71005778065721       2.33866107579976       0.35416684262353
H        -0.82518909594761       2.44448041695753      -1.05683056973741
H         2.24801618979063      -1.05904285357288      -1.65147220191603
H         2.82081981541653      -2.41934147386069      -0.64101000289739
H         3.94393650724655      -1.56610473085368      -1.72599723846453
H        -2.15516120671565      -0.17926566626263       1.67928607499209
H        -3.11888917251139      -1.53610453849524       1.02736632963694
H        -3.92360860036815      -0.17075079928496       1.83425473855458
Cl        3.44152118525833       2.87600674555375       1.24768096770530
