54
C14H30F2N2O4S2 optimized with ADF in AMS.
N         1.03865103763618       0.72929515214673       0.28583124119666
C         2.18617109253911       1.12961794768383       1.20139497587746
C         0.37014817069408       2.05508862548502       0.00063291847710
C         1.59690008804783       0.14681701825948      -1.00674507318049
C         0.11772493279446      -0.23781709376469       0.99074561113766
C         2.68951429112887       2.46304182886039       0.65116262430378
C         1.52026829257417       3.04389613920506      -0.18765646562951
C         2.13179261817699      -1.26877534842306      -0.87719608403824
C        -1.09648541585618      -0.65652659594585       0.18237323007003
C         3.11820636413805      -1.57914579910705      -2.00505844856345
C        -1.93853103269737      -1.65386816367780       0.98298068305879
C         3.64540628397066      -3.00946460783261      -1.91562682189638
C        -3.18625585175328      -2.11347732028041       0.23218928873299
C         4.71670423515114      -3.30730553502714      -2.95962055891344
C        -4.01795109897684      -3.10719165968115       1.03856987949109
H         2.93410167669571       0.33205847709543       1.21026426772070
H         1.75939034076944       1.22086649567177       2.20982259468517
H        -0.22474977224526       2.29429001528079       0.89525539074956
H        -0.29899091685271       1.95484687892969      -0.86306591713289
H         2.40496421654205       0.82793478820381      -1.31078859102996
H         0.79363530178730       0.21507938463265      -1.75654490634676
H        -0.19054911177501       0.27130733611973       1.91778759735592
H         0.73656271815309      -1.09674748861583       1.28789595336580
H         3.59175547602645       2.31597529318517       0.04002133091916
H         2.97538327153659       3.12220177736698       1.48248364464018
H         1.21568711524335       4.04642288696206       0.14461711235114
H         1.79405598377058       3.12621840868856      -1.24993350235600
H         1.30403976220596      -1.99830367328568      -0.89037302439160
H         2.66459403727546      -1.39455103471546       0.07641337737018
H        -0.78943010018038      -1.12988301127122      -0.76558250544526
H        -1.71807905379115       0.22003324407419      -0.07391985329420
H         3.97042359350675      -0.88018348305237      -1.92123408908280
H         2.64832974213336      -1.40935108650831      -2.99344394194327
H        -2.23745598144669      -1.19527485902155       1.94368294041397
H        -1.31632928951428      -2.53096838131557       1.23806028916486
H         2.80342943040835      -3.71740931015971      -2.02633115871663
H         4.05733132941492      -3.16446938778641      -0.90489769636253
H        -2.88355992780602      -2.57302755482072      -0.72636101048099
H        -3.80284502305587      -1.23233499650477      -0.02413267239879
H         5.07447873412957      -4.34402360968115      -2.87371770547373
H         4.33353155453187      -3.16337862940751      -3.98350796706733
H         5.58445138795762      -2.64121704491703      -2.82579521200603
H        -4.90769045211940      -3.43096920616138       0.47925269476177
H        -3.42832085899969      -4.00416178222526       1.28683557730224
H        -4.35844048658768      -2.65920255004720       1.98602095372727
N         5.11346799611115      -1.94628965692607       2.94185385992697
S         5.50693325280859      -0.69881007674948       2.02274666377141
S         3.62142653037843      -2.52693851303795       2.94318754589582
F         4.85736126172333       0.59754817384059       2.86129613531548
F         3.57580980809334      -3.43151028760448       1.54260688376569
O         6.93396046993850      -0.48901284868886       2.09156538934442
O         4.81763603286822      -0.60466400546489       0.73387766164691
O         2.55332072323210      -1.55113293298512       2.71767154650463
O         3.49793678856423      -3.50112079759820       4.00212074760546
