51
C13H28F2N2O4S2 optimized with ADF in AMS.
N         0.17912903707860       0.35440572137650      -0.02145095272653
C        -0.02608626270046       0.01241171955998      -1.48719157620383
C        -0.69878765809518       1.53668935058549       0.33792644555939
C         1.64608090686967       0.75257802620789       0.13055111103499
C        -0.17039876608711      -0.81993338360085       0.87710402299652
C        -1.48002167861499      -0.24223939254381      -1.83401006937890
C        -2.16888713740909       1.32819511397928       0.00051917424184
C        -2.35586624761029       0.95631797431342      -1.47052497030380
C         2.15930412208438       0.87713533011508       1.55225974647352
C         0.59400051481409      -2.09587876106389       0.59122327619443
C         3.57497219629876       1.46514056414921       1.52179581121213
C         0.29117862020161      -3.14772179305369       1.66175318602966
C         4.25204470657922       1.38627247185595       2.88592050911957
C         0.93593004474828      -4.49112677683951       1.32751550939201
H         0.61739125634986      -0.84303581751792      -1.71486357074061
H         0.37077579524312       0.87106100930766      -2.05136955982955
H        -0.29775804269145       2.38672127555697      -0.23624776304672
H        -0.54710087386212       1.73689828469486       1.40766281428498
H         1.73517552307777       1.71054270730968      -0.40709021086434
H         2.23535360254321       0.00202964750395      -0.42183170922341
H        -1.24983642158456      -0.98653129777792       0.77321110026544
H         0.01471088765769      -0.47112170783254       1.90435382301415
H        -1.84193965885027      -1.15703852055091      -1.33443081341912
H        -1.51910436731377      -0.44839746150003      -2.91612087066805
H        -2.69162787302743       2.27044389748411       0.23669710244331
H        -2.61436012633399       0.56009947987652       0.65418939117488
H        -2.06905710527236       1.81747716408113      -2.10164076280433
H        -3.41605541640656       0.74335469494385      -1.67943951338510
H         2.21641700564273      -0.11897639649191       2.01986546128714
H         1.51182955996785       1.51758775938458       2.17856590646979
H         1.67511750477572      -1.90363273884618       0.58573314367445
H         0.33245842671382      -2.49879853341498      -0.40056602510346
H         3.52853558736094       2.51347726609804       1.17506173531477
H         4.17295884668807       0.90178020065320       0.78569417241935
H        -0.80273155090110      -3.27178842542401       1.77015121998220
H         0.66726630715030      -2.78558001428091       2.63620138646214
H         4.37565480346115       0.33477365778967       3.18789119796035
H         3.66098598348944       1.90329181176434       3.65943491651397
H         5.25058359132137       1.84726343582114       2.85812575238865
H         2.02269258242380      -4.38608351952915       1.19222590496800
H         0.52721633512915      -4.89773742231856       0.38893805975389
H         0.75338997123638      -5.22501036110789       2.12633465728074
N         3.36644682801917      -1.50271130655883      -1.40188809858086
S         4.18108156222703      -2.45902023793042      -0.39123553442903
S         3.01145882949975      -1.95147103799427      -2.90663322517613
F         5.74696721038791      -2.16006839848738      -0.78996487329273
F         1.71347647748633      -2.98391933246795      -2.64807822442298
O         4.03358100138350      -1.86302223621334       0.93092567420735
O         4.01253376588572      -3.88652576260602      -0.57018307055971
O         3.98314754532001      -2.76275889242918      -3.60354928591306
O         2.37881174724431      -0.80448476513045      -3.53922793044737
