35
C9H18F3NO3S optimized with DFTB in AMS.
N        -0.46599782752844      -0.35731775535141       0.29325916542404
C         0.14760837891247      -1.48860080146083      -0.48361555175274
C         0.70927500425495       0.52705595140929       0.57203384215124
C         1.18975056637739      -0.83633909095502      -1.38512767182072
C         1.54288741220713       0.49634516039429      -0.70709343692660
C        -1.06411726974011      -0.84946417054036       1.57583381351944
C        -1.48182185582415       0.34615671602930      -0.56654017099954
C        -2.22334581798340      -1.81561058286856       1.37920333626596
C        -2.16517329202628       1.53680359557560       0.08265725706813
H        -0.62875591904501      -2.01374678119130      -1.03793519093130
H         0.61309671380157      -2.16468007574845       0.23750570012614
H         1.26106848138923       0.08863372261525       1.40724819694315
H         0.37123035122522       1.52364754752381       0.85281836402766
H         0.77457941643670      -0.67131948810515      -2.38120395811531
H         2.06244220191879      -1.48423408497840      -1.47943203027845
H         2.60451702528876       0.55976018558119      -0.46194991475958
H         1.29215570684565       1.34027896917706      -1.35253071083865
H        -0.25934649694156      -1.34288124444754       2.12812038596181
H        -1.38184982280147       0.02795147044995       2.14426807189096
H        -0.96813948905210       0.65441353188743      -1.47751352697546
H        -2.22920854020334      -0.39767748365804      -0.83975462636221
H        -2.53206566705599      -2.17145663807159       2.36165544893611
H        -3.07398543154264      -1.33564115201355       0.90072766648542
H        -1.92936106903531      -2.66933306674165       0.77205610740756
H        -2.83343421606979       1.96217685867735      -0.66594533747388
H        -2.76684049877029       1.24140695968533       0.94113683538110
H        -1.46381488245579       2.31083328026817       0.39217493497793
S        -2.43588894679773      -1.98502241843746      -2.97796938215490
O        -2.63428807669113      -2.37401367046982      -1.57993984780248
O        -2.48900884119460      -3.05864944896185      -3.93009882515741
O        -1.33180873680341      -1.04356604318318      -3.14631659999301
C        -3.92415770226099      -0.92909382669264      -3.30560276595828
F        -3.96569609179242       0.04515303876790      -2.37940440239594
F        -5.05294750728363      -1.61755244020930      -3.21652968314615
F        -3.87364907645830      -0.35024879525578      -4.49662920752404
