41
C11H24BF4N optimized with ForceField in AMS.
N        -0.55191875250704       0.09493310754151      -0.09589660495427
C        -1.54641500593608       0.54228460242419      -1.12575760196934
C        -0.89725048572398      -1.30232948320215       0.32722831070686
C         0.78843696882452       0.07760745421367      -0.77898720022822
C        -0.54471403965436       0.99794127339306       1.10822718726326
C        -3.01058172537889       0.45220496840156      -0.66606616630533
C        -2.35459783045818      -1.47245580921578       0.80553512849189
C        -3.34801851629662      -0.97206717462392      -0.23861549734635
C         2.00095249378786      -0.29777765979124       0.10770872201815
C        -0.13991910202752       2.45956488823398       0.84490415369804
C         3.28664928497845      -0.33235747913481      -0.73086942872637
C         4.49627120462859      -0.71494776011482       0.11713890247762
H        -1.45890486361573      -0.08919193740707      -2.04125183543513
H        -1.34127229265537       1.57776374642395      -1.46903905768502
H        -0.24495890840246      -1.63912212377275       1.16140094318583
H        -0.73705398566882      -2.01597698518570      -0.51417566911971
H         0.99655628908060       1.06374412879729      -1.25106895251281
H         0.76890887832854      -0.64269445235514      -1.62685897696426
H        -1.53915126206949       1.03372140035742       1.59276338744101
H         0.12666550188635       0.59236273237871       1.89589149987287
H        -3.67123147918136       0.73528642512598      -1.51420021719418
H        -3.22045955278988       1.16711194489045       0.15602081659705
H        -2.52055752697074      -0.94940823103285       1.77038491385548
H        -2.54830850787410      -2.55100613730944       0.99235126297427
H        -4.37585923876342      -0.99828725163904       0.18353227230895
H        -3.32322188035875      -1.64279498672214      -1.12585234302235
H         1.85788080550804      -1.29925656790227       0.56177640425476
H         2.13850942098815       0.44921494682829       0.91622157843091
H        -0.15690490082776       3.01121944505614       1.80905570914409
H         0.88835402876026       2.54193343176099       0.44169055401880
H        -0.85712525369673       2.96867878994413       0.17140240949308
H         3.46720976495557       0.66813589722108      -1.18107140510869
H         3.18011832146817      -1.07283931242574      -1.55366350953869
H         4.35664304496831      -1.72668120254978       0.55410773510949
H         4.64360152687025       0.02239339654512       0.93470482705194
H         5.40618656423895      -0.72616993585580      -0.51888014524169
B        -0.06936918425311      -3.52019416318240      -4.10025065553527
F        -1.23930530298504      -4.11614865115537      -3.55897092246785
F        -0.22183486671330      -3.36454984538060      -5.50358694135163
F         1.05215826229569      -4.35019677687238      -3.83456463583011
F         0.13145421834039      -2.24838082890632      -3.50475342255707
