42
C10H22F2N2O4S2 optimized with ForceField in AMS.
N        -0.51532587986687       0.01429926850279       0.00302741425248
C        -1.44439207951322      -0.55149127701291      -1.02337449899468
C        -1.40829455109016       0.61115188524561       1.04327180801224
C        -2.84573702043047      -0.05930233564005      -0.71840393110020
C        -2.82744273177346       0.15277460638303       0.76870754569556
C         0.33089023228837       1.07931537710056      -0.62825696787008
C         0.30295507079029      -1.08021166122443       0.62042667959958
C         1.35035326511505       1.74443667386528       0.32695506865730
C         1.28182342121225      -1.77820329993207      -0.35345313448295
C         2.06540276518121       2.90272419945048      -0.36369649149386
C         1.95405714241964      -2.97400526199748       0.31351308849681
H        -1.16806421442779      -0.27835865545827      -2.06764328012066
H        -1.48253379145120      -1.66462986756497      -0.98942541652100
H        -1.11825879725339       0.33808851687671       2.08380388146024
H        -1.41784507729792       1.72468361633152       1.00124886054625
H        -3.02861034801135       0.90832995570348      -1.23659228161556
H        -3.62011046607045      -0.79852793360201      -1.01829508318837
H        -3.02206319116589      -0.81068882681486       1.29042971095141
H        -3.57790760043017       0.90971436537143       1.08460645516509
H         0.88644377908072       0.67047267487239      -1.50088489595170
H        -0.32756792964015       1.87597295767371      -1.04712402679444
H         0.88682569607540      -0.69297293384538       1.48438805535399
H        -0.37642997386274      -1.85361214234937       1.04939008246517
H         0.84738143390937       2.13513759878467       1.23582591660434
H         2.12249951793933       1.01294548984240       0.64206876424002
H         2.08066814623734      -1.07650556326737      -0.67006989570063
H         0.75337260479183      -2.13710180341826      -1.26077618219607
H         2.62112293578798       2.53513116721407      -1.25271558865939
H         1.33388768329136       3.67568377308275      -0.68233129784994
H         2.78857203685879       3.36784944163932       0.33911748343710
H         2.54721641438294      -2.64085465783052       1.19185439485062
H         1.19471718972570      -3.71485791157936       0.64266702399036
H         2.63562752114000      -3.46506877840077      -0.41193729266995
N         4.20608230379798      -7.49934315621952       0.67476343876775
S         2.61292147208303      -7.82256801300213       0.86683754775786
S         4.71432102798254      -6.15289505903373      -0.10481586749548
F         1.98366068046649      -8.38123248184149      -0.58071044724160
F         4.52976299406420      -4.82975404830475       0.90365058804026
O         2.43698603854573      -8.87591357009294       1.92296127612130
O         1.87894171188011      -6.57399686398322       1.26756099642489
O         3.89814401052638      -5.93997824164528      -1.34864381509444
O         6.16438578411118      -6.29778298697905      -0.46793154944960
