54
C14H20F18NP optimized with ForceField in AMS.
N        -0.00016183290503      -0.00600893507160       0.00202484044046
C        -0.84597094553402      -0.25926679829186       1.22071053708061
C        -0.85004758053345       0.25251064309572      -1.21287563408378
C         0.84339113418194      -1.22548631280530      -0.25541461397800
C         0.85182314583022       1.20828846425203       0.25546715272409
C        -1.90756625845303      -1.36909867112104       1.08333877233867
C        -1.90841535949851       1.36479991201917      -1.06930471593242
C         1.90147132834280      -1.08880283581143      -1.36826331683990
C         1.91086075335686       1.06672439460504       1.36711507709384
H        -0.20817941339882      -0.55614474445208       2.08085572222032
H        -1.36281258809253       0.67068533290781       1.54510566764711
H        -0.21477937298852       0.54941783205707      -2.07487479972589
H        -1.37097449863565      -0.67511804501051      -1.53728858613043
H         1.36350642153461      -1.55141093059982       0.67220187237302
H         0.20336715287719      -2.08454758641682      -0.55068605812790
H         1.37250755122123       1.52828620025884      -0.67387394068826
H         0.21801423288105       2.07222834380464       0.54999343465834
H        -2.47638762224159      -1.43661642006781       2.03458809325540
H        -2.64133830251583      -1.15460542789194       0.28224278516759
H        -1.44323183856334      -2.36060820432386       0.91288304078988
H        -2.47816712954687       1.43806191020635      -2.01959225831755
H        -2.64210641383815       1.14845742316339      -0.26858796722973
H        -1.44170595434169       2.35444815176660      -0.89485650623198
H         2.45702946943400      -2.04619337789522      -1.44740028192416
H         1.43643673154325      -0.90322472911011      -2.35652239164510
H         2.64566259392700      -0.29891433785044      -1.14754109393343
H         2.48254540502591       2.01617916335874       1.43611953384903
H         1.44450530629499       0.89762028608827       2.35787385733274
H         2.64222344105836       0.26327169269874       1.15312177514171
P         7.02815084319184      -4.24262222154996      -0.81051910116930
F         7.55678375363922      -3.00161526558031      -1.88022152402023
F         7.12070969610911      -5.80554491007545      -1.53187855241959
F         7.12972383078400      -2.86786789593807       0.21934862009660
C         8.93852777459708      -4.57793814511123      -0.84984007338223
C         5.54774455451951      -3.88770361664227      -2.00559537185551
C         6.15444036421798      -4.87818288445327       0.79307121040238
C         9.88176791557520      -3.42607024182232      -0.40722647807163
C         4.30654646543045      -4.79538085946657      -1.87839061836136
C         7.05763776816922      -5.20707106958366       1.99857331702957
F         9.31120706609567      -4.90505465287758      -2.14810208378616
F         9.23120524970564      -5.67500422773000      -0.06386837776898
F         5.97587715846385      -4.01731138471296      -3.32363659041215
F         5.11812052716280      -2.58168332595580      -1.81453235438560
F         5.48137280628242      -6.05014448888795       0.49608782025444
F         5.20517105239437      -3.95481418135866       1.21117556454043
F        11.17566575529760      -3.91306020681258      -0.34618690388136
F         9.56231986615326      -2.93159698307093       0.83894221021345
F         9.87243216035954      -2.38530205266260      -1.31840489752300
F         3.43135600827004      -4.49487136500612      -2.90780706149688
F         4.64241471686888      -6.13184255966110      -1.98873288406790
F         3.63591262096531      -4.57595892800981      -0.69168372042092
F         7.74889975060358      -6.38454572026079       1.78508720225330
F         6.26287494174132      -5.39016426235462       3.11680195215351
F         7.94431666357971      -4.19076530497795       2.27610508795482
