40
C12H8F18NP optimized with ADF in AMS.
N         2.72531303658212      -0.78204245546650      -0.10220186512846
C         1.91732388688822       0.10429932022170       0.52014945161545
C         4.03079513408385      -0.50495522720332      -0.30944448899082
C         2.20787141246966      -2.11995085841418      -0.44633014509908
C         2.40459301065614       1.32587983302442       0.93682622431748
C         4.56264233764979       0.70547517275659       0.09141622559292
C         3.74495191353947       1.63431288919514       0.72392063359863
H         0.89117284835471      -0.21437679433420       0.68602163873948
H         4.62469985837426      -1.29357402652372      -0.76553400920037
H         2.40881769598806      -2.78447634523234       0.40720014909573
H         1.13281984161010      -2.04213435473456      -0.64134000021666
H         2.72592780853401      -2.47783849497048      -1.34245911226462
H         1.73365619627624       2.01470915771175       1.44915242188659
H         5.62444257622067       0.89211340738840      -0.06711971153179
H         4.15215169891375       2.58731336896816       1.06483422483220
P         4.36634863832583      -2.80638391282419       3.17712997745336
F         3.10079624034591      -3.50576949851121       2.29405253838076
F         4.58724358842443      -1.70905483051154       1.89918007539960
F         4.16299699783046      -3.86063205427325       4.43541782780052
C         2.97625689905099      -1.62242726144393       3.97214429812092
C         5.50134221887762      -4.15955481675875       2.26639937553885
C         5.87477130714156      -1.84494225688244       4.06682669509109
C         1.48227748375885      -2.08505481048206       3.89931000676485
C         5.88469551860373      -3.94757996715954       0.76932962373085
C         6.44497979733096      -2.31131725583068       5.44310147369650
F         2.95653374877386      -0.36057942963226       3.38716067622735
F         3.21059322286819      -1.43854774609704       5.31073193833095
F         4.83308157111878      -5.36471899372528       2.28594505715496
F         6.69414405013337      -4.37787862321405       2.91104577735405
F         5.51110273064674      -0.52417197810726       4.25775606384426
F         6.95008890052131      -1.81045758288133       3.20334141976540
F         0.71923601163141      -1.25135377588070       4.66353573215152
F         1.29905534415264      -3.33786751666998       4.34293013566846
F         0.98100972168089      -1.99390514484322       2.62435556837357
F         6.57749867531109      -5.02224238889576       0.31480114793296
F         4.77926653378782      -3.81835741328655      -0.02869364099376
F         6.65735108666581      -2.85081718546013       0.57090069082710
F         7.48285865793961      -1.49142683859211       5.78640751252397
F         6.91621730141359      -3.57476971542557       5.40567596720123
F         5.51623965862354      -2.22971379849801       6.42051964801399
