30
C6H14F2N2O4S2 optimized with ADF in AMS.
N         0.41300543111551      -0.30437779845410       0.44305684580850
C        -0.89371882226486       0.50840017722382       0.43219699386089
C        -0.01808249051412      -1.69099876168696       0.91660875895884
C        -2.03716335361933      -0.51768064247830       0.48223101392353
C        -1.37196453142602      -1.88629060333294       0.26672477560395
C         1.43095143399737       0.29931930481632       1.35756327237340
C         0.97914053247738      -0.38750592504679      -0.93910150210210
H        -0.88229130444329       1.12843864958549      -0.47410275671993
H        -0.88024212963301       1.14951795404675       1.32158335301425
H        -0.11419209756428      -1.63599275063414       2.01138566134675
H         0.76395966341007      -2.41277772099011       0.64326075156529
H        -2.81700022980185      -0.30051238372291      -0.26069590903271
H        -2.48910055466806      -0.50168935860328       1.48493837381841
H        -1.92636485547217      -2.68998510859304       0.76988172671818
H        -1.28028517759841      -2.13951561614717      -0.80219709281472
H         1.67257319213869       1.30689324381714       0.99504068619311
H         1.01848123002230       0.32374473975421       2.37260906692501
H         2.32681862106740      -0.33477355447005       1.34748872279922
H         0.23821969132847      -0.83321645239790      -1.61210736266519
H         1.23022717235683       0.62546160374061      -1.27940902613635
H         1.88445572675979      -1.00748895720975      -0.91180940728982
N        -1.63295263679890      -1.22300830703262       5.42782139982392
S        -2.15163393904429      -2.51559395615091       4.61212741632149
S        -0.44454664594693      -0.33326303015585       4.86658818182654
F        -0.93070628295082      -3.60448231006432       4.83585703293324
F        -1.19128829481224       0.57618598949127       3.62422632568997
O        -3.28184512064926      -3.06966763851237       5.31824508432888
O        -2.19443392648561      -2.35423895603673       3.16161922834818
O         0.59837358626415      -1.02492812287258       4.10584815259156
O        -0.08670733674450       0.67686372171715       5.83627647768770
