45
C11H20F6N2O4S2 optimized with ADF in AMS.
N         0.45556294517563       0.85226659561693      -0.19248570158679
C         0.36517210258596       1.99495729690639      -1.20062750554386
C        -0.92137855934286       0.23366286954935      -0.01893954663241
C        -0.72911965104501       2.99646699997471      -0.88666199099253
C        -1.99942697098405       1.24250005354672       0.33343091544613
C         0.97356334401337       1.35553088230335       1.15800064549931
C         1.38809524196511      -0.18832121265343      -0.78156037267281
C        -2.09138005212138       2.33282587856661      -0.73068306177770
C         2.44953110819001       1.68991372902990       1.17973797943834
C         1.60254756544027      -1.42187956276905       0.07337019608926
H         0.19203809412393       1.50639172166000      -2.17412071108637
H         1.35219796126352       2.47813427326863      -1.21563899137440
H        -0.82412763115835      -0.54074425137283       0.75336048030963
H        -1.14949049705135      -0.25206400428404      -0.98335033810134
H        -0.72699731586862       3.73545888671067      -1.70560283877637
H        -0.47338601913466       3.55023917752428       0.02493026996775
H        -1.80738400420449       1.69705347621335       1.31846019217386
H        -2.94585442057097       0.68164330995416       0.41582820151552
H         0.38035469376389       2.24145734160610       1.41708922150804
H         0.73036591637563       0.56457403658915       1.88318384771570
H         0.95253730644234      -0.46252358191859      -1.75425725223969
H         2.33691188198004       0.33143559838984      -0.97586220847553
H        -2.83695872001166       3.08632536261079      -0.43348405355706
H        -2.42463846729082       1.89443154071496      -1.69102665173198
H         2.65554885119494       2.15246862057642       2.15546648726231
H         3.09955297710047       0.80917394768586       1.07754517055330
H         2.71764710048364       2.44809944728183       0.43192549372690
H         2.35367336340370      -2.05183973776481      -0.42671252707211
H         1.98818168174338      -1.18099730891987       1.07310188439344
H         0.69020388151491      -2.02454019539206       0.17849099432759
N         0.22505441375248       5.84255570917434       2.83214662918767
S        -0.72310318439267       4.66016212261933       3.34876528333265
S         1.07754119852869       5.82931388326648       1.47479038400769
C         0.36759373252911       3.79208923363292       4.62164455668854
C        -0.10264471132597       6.64630861331141       0.24447547534270
O        -1.79935456070835       5.21585472113119       4.14972920302159
O        -1.02832970413083       3.59016274137112       2.38609127088993
O         1.33496043817080       4.51082757641932       0.88114486403158
O         2.17411185423205       6.77422567897430       1.59018242956566
F        -0.34230895210266       2.79946790400609       5.22040280365658
F         0.80266345886600       4.64332384316408       5.56920001343693
F         1.45516570177855       3.21784805987455       4.02742649634876
F        -0.28166651101404       7.95025148920667       0.52684900121595
F        -1.31636067310305       6.03264444143750       0.24585676871264
F         0.41559484004340       6.54215982780538      -1.01064140964503
