27
C7H13BF4N2 optimized with ForceField in AMS.
N         1.10902404221342       0.35189160043183      -0.39218201093777
N        -1.11454812506833       0.33899382731149      -0.39452449958026
C         0.00116366671495      -0.25673212359020      -0.85898661114662
C         2.49450451794306      -0.03123470675859      -0.65024978972800
C        -2.49531661240814      -0.05991305917883      -0.65335637191240
C         0.68077732020051       1.36970442052490       0.38222834245024
C        -0.69984934835943       1.36168110763265       0.38029282710225
C         3.10676393395910      -0.67394013042478       0.58932887090458
C        -3.10392205424443      -0.70012815741276       0.58939866417977
H         0.00685836042853      -1.12807048046573      -1.50324536918683
H         2.53837848719861      -0.75861550112556      -1.49012909467958
H         3.08288267175711       0.86617248311454      -0.93988713239154
H        -3.09180250243367       0.82991437515858      -0.94977164330475
H        -2.53008363692180      -0.79300537144547      -1.48861106895944
H         1.32310733786214       2.06301730902736       0.90972457380708
H        -1.35238482581308       2.04668572128183       0.90564686453550
H         3.10126002852149       0.04171145832287       1.43830672184459
H         4.15505538103619      -0.97100137420938       0.37758366013423
H         2.52831112028219      -1.57934694935589       0.87168155906129
H        -2.52028240147796      -1.60082880763863       0.87603031013449
H        -4.15059827088197      -1.00383164916833       0.37933817023225
H        -3.10230982501904       0.01946409886683       1.43512538263865
B        -0.15405740196416       3.64932036641987       3.50737159410900
F        -0.79598245883281       4.26620086688250       2.40076899025636
F        -0.70164713520498       2.35481153319980       3.71258749491738
F        -0.35566874647988       4.43860249423732       4.67058363850411
F         1.23747336669239       3.53879946776177       3.24612323491540
