36
C8H14F6N2O4S2 optimized with DFTB in AMS.
N         1.10934358425970      -0.45205880835746      -0.34059784758490
C         0.09570836262830       0.51474877252424       0.18227558383051
C         0.42366535713553      -1.77594121110909      -0.19674259833539
C        -1.24714900738802      -0.01650047450026      -0.32338642694572
C        -1.01618587046555      -1.50991458054715      -0.61401470343165
C         2.37440095111608      -0.43016093120389       0.43501331840214
C         1.41322676496557      -0.14968023909703      -1.76723624416512
H         0.33173889946255       1.51993401948322      -0.16828301704479
H         0.14541320582559       0.49122821114288       1.27344304312497
H         0.48976073623878      -2.06629151058484       0.85414154175510
H         0.94063719282432      -2.51241800600598      -0.81402995845801
H        -1.55584775737865       0.51153120728912      -1.22761340682289
H        -2.01689749525079       0.13234526768283       0.43570591773955
H        -1.69839818944862      -2.14289086562128      -0.04536823810346
H        -1.15094059624452      -1.72809659908609      -1.67542247914379
H         2.84625168891958       0.54327918966583       0.31442697773714
H         2.15418193698357      -0.61063217823974       1.48539389317948
H         3.02838164781231      -1.21546852856560       0.05342270353360
H         0.51061683605607      -0.25461676227267      -2.36308769325490
H         1.79759816049012       0.86632464465680      -1.83476200080921
H         2.15855957910510      -0.86242418093152      -2.11857591151708
N         2.39181862675328      -2.93689428788961      -2.20619203539414
S         3.64692378234820      -3.77198882244941      -1.64861453686900
S         1.41244127494433      -3.54766211430964      -3.32254461372667
C         4.97151403196452      -3.75963578554162      -2.97334456336327
C         0.52069576203987      -5.02331631867420      -2.58385910484757
O         4.18531931094152      -2.93697280362561      -0.59399113890673
O         3.37579454462745      -5.15500477032434      -1.35655351364248
O         2.05560578486696      -4.01485620690694      -4.52025329027037
O         0.35731336782634      -2.55835086755778      -3.43884381384244
F         6.15879661613010      -3.83203153822924      -2.39504285631947
F         4.89638339576913      -2.62283423999243      -3.65099736152687
F         4.82709850387554      -4.77428487723189      -3.79726966990951
F        -0.67491375787844      -5.11715414944917      -3.14438344204248
F         0.34974121142537      -4.80232177301959      -1.27964957645365
F         1.16997892571881      -6.14966307922080      -2.75868785577091
