30
C8H15BF4N2 optimized with DFTB in AMS.
N        -0.14058390930038      -0.84544398768489       0.16050735013003
N         1.78460658928400       0.12037195096442       0.12756271876970
C        -1.49352077017662      -1.21761653192091       0.54905590037574
C        -2.52263188712539      -0.44893350659360      -0.28606361641662
C         0.65184352184627       0.01165824905620       0.81275645681662
C         0.50974303569688      -1.28320826277495      -0.96489497001628
C         2.95282429438928       0.89047346281294       0.54989654849058
C         1.72512793175907      -0.67618552757450      -0.98027819054428
C        -2.45684922432601       1.05634914577354      -0.03956350402349
C         3.42575036220414       1.81912058946449      -0.55938743452661
H        -1.61416246202888      -0.99831044508511       1.61343489493489
H        -1.60525114620355      -2.29365344765231       0.39080770500605
H        -2.35231149953966      -0.65873227800964      -1.34599868462622
H        -3.51519519569503      -0.82342022088097      -0.02081998537058
H         0.41581965890140       0.50865347782185       1.73788148130833
H         0.06466328254704      -1.99214196830513      -1.64032903177977
H         2.67001684980966       1.44988385642138       1.44617928055742
H         3.74171445850591       0.17114746603238       0.79719515105341
H         2.55640921466355      -0.76687692826163      -1.66179708949551
H        -1.47795613199067       1.44859419132816      -0.31782028452864
H        -2.63679227833430       1.28084471368542       1.01258283520549
H        -3.21468267107242       1.56085701511462      -0.63779701749956
H         3.79498244274203       1.23689080163606      -1.40242686745639
H         4.24414724576853       2.42658571075785      -0.17562752974344
H         2.61980656023149       2.47399686820138      -0.89250677899552
B         4.90157490986296      -1.47235446598525      -0.70360935056815
F         4.45993117292684      -0.81430714673315      -1.88769855426015
F         5.50608295020088      -0.51339759644533       0.12334689636966
F         5.73985157706460      -2.51093720178251      -0.99898917259486
F         3.72755844978838      -1.93402066718082      -0.03798892977182
