42
C12H23BF4N2 optimized with ForceField in AMS.
N         0.23686482143700       2.26018101976282      -0.19319584029025
N        -1.84324749386669       1.47221718630559      -0.18072215151682
C         1.62492885734504       2.46734635665418      -0.60212024384351
C         2.56010553763985       1.46463125921271       0.09087089429410
C        -3.04205179917946       0.73932041245442      -0.58462949808246
C         2.15651588749241       0.01199443120068      -0.20364251727280
C        -3.10673526968300      -0.63295150392849       0.10065463532418
C        -0.73163789516933       1.66527927567924      -0.91700813343432
C        -0.28213287073128       2.45833409272061       1.03537073907649
C        -1.57310493086820       1.97065886487049       1.04275043467432
C         3.16291083770351      -0.98374461282924       0.37928878042529
C        -1.95029415172105      -1.54352266907112      -0.33531776899098
C         2.70261801455677      -2.42169554397206       0.15068278915132
C        -2.05175433242656      -2.92191786460824       0.31013395714750
H         1.93360824796348       3.50368124973125      -0.34551094424468
H         1.71795943389887       2.35334501508003      -1.70450107093921
H         3.59667754451287       1.64306021222655      -0.26875754349075
H         2.54258312605042       1.64125509256955       1.18866560606418
H        -3.94156506193551       1.33203844988532      -0.31287460893462
H        -3.05295372005829       0.60242743466415      -1.68856946145507
H         2.08259490589194      -0.13889917166182      -1.30314430235435
H         1.16300905493784      -0.18498910916943       0.24966831109808
H        -4.07256331868620      -1.11487364385871      -0.16576975673550
H        -3.08485468794939      -0.49900776510590       1.20459459763947
H        -0.60525217294554       1.31501181596947      -1.93345430551932
H         0.25392294918690       2.87824146001306       1.87590369342264
H        -2.24584936819109       1.93867890283907       1.88909023482597
H         3.27078017482022      -0.81226158143600       1.47229776609289
H         4.15447858559662      -0.83924027753880      -0.10160480106900
H        -1.95816830754659      -1.66038984511836      -1.44076111134438
H        -0.98311187718430      -1.09086137730703      -0.03720880856376
H         2.59824642308945      -2.62741168956230      -0.93611282069661
H         1.72571456653836      -2.59822723217168       0.65022168683335
H         3.44939948976725      -3.12490526248374       0.57531726243822
H        -2.03312792337073      -2.83121758195258       1.41697338470193
H        -1.18896275470871      -3.54429892575988      -0.00852052223522
H        -2.98981441040751      -3.42700331615397      -0.00300149957281
B        -0.96900174726625       4.52109712392732      -3.25187579357840
F        -0.68496058560987       4.90526381841545      -1.91382034467205
F         0.12048076457300       3.77173466441927      -3.77124990470914
F        -1.16667425539332       5.68261317863161      -4.04634244841049
F        -2.14501778900292       3.72423378915651      -3.27671274225343
