51
C15H29BF4N2 optimized with ForceField in AMS.
N         3.07813829910122       0.92803458738597       0.00024950965346
N         2.91619975933265      -1.28295376961918       0.19267849393021
C         1.47220198136715       2.78560450182204      -0.26876257288263
C         2.83982565329831       2.34394790060036       0.27557765202231
C         1.00184799656151      -2.60922962122745       1.02884944703182
C         2.50487308341639      -2.58795069536922       0.70841686873262
C         0.31286176744806       2.09895510195575       0.47031452546548
C         0.14064921113819      -2.29705306466326      -0.20556944174741
C        -1.04705024113570       2.54606070753636      -0.07601774267198
C        -1.35160352669335      -2.28624285276838       0.14673300790767
C         2.82639150656475      -0.10079442901154       0.83324295634438
C         3.34874938273857       0.37770713009370      -1.20088023337775
C         3.25617920195706      -0.99377216295143      -1.07978062773147
C        -2.18790783827919       1.86100076377487       0.68748068389359
C        -2.19150261479011      -1.79372549576498      -1.03918880590530
C        -3.54321298032437       2.16980332075395       0.06057302564307
C        -3.67216023088675      -1.72211530451267      -0.67824918909566
H         1.38216494841172       3.88684312808462      -0.14589209320276
H         1.41612269137087       2.55710797762537      -1.35549922822678
H         0.78919842197717      -1.86986254044021       1.83125657310477
H         0.73606700505113      -3.61596158987612       1.41799635586338
H         3.63988742474203       2.94996529579183      -0.20190629397329
H         2.88701631205935       2.53243679444351       1.37063151839238
H         3.07706625462582      -2.80760811501465       1.63428194250003
H         2.73656103765905      -3.38384401260298      -0.03311894645826
H         0.37340577079795       2.33751061700187       1.55456997132810
H         0.39274819460160       0.99871715495237       0.34722596504297
H         0.32978970797850      -3.05894601199677      -0.99291238793549
H         0.41930487057116      -1.30045867959516      -0.60937876916709
H        -1.14700156022284       3.64881151370295       0.02695809090039
H        -1.10958433797777       2.28194253987086      -1.15470309133377
H        -1.52028246525537      -1.61605145779843       1.01760971147156
H        -1.67046597016226      -3.31376993580658       0.42797067099583
H         2.49127823131204       0.01314043842544       1.85668601474142
H         3.53209857986219       0.93455466176296      -2.11068914109704
H         3.35083623040300      -1.72002856031310      -1.87675684216203
H        -2.03818440198531       0.76169668134990       0.68167940402165
H        -2.19043519713138       2.20513259356040       1.74439003176835
H        -2.06266313985085      -2.48221593674675      -1.90211809670578
H        -1.85208212660696      -0.78039619215126      -1.34630907450130
H        -3.73823599601469       3.26280057570927       0.08178073079552
H        -3.57314404815017       1.80852262179222      -0.98944379805225
H        -4.34139898573882       1.65313755611048       0.63444301699882
H        -4.24595664919448      -1.33315215132399      -1.54577027304379
H        -3.82861019489642      -1.03910112652523       0.18327802672533
H        -4.05531695924304      -2.73194559674091      -0.42005305388441
B         5.72956014522832      -4.56472048626254       2.18307852770739
F         6.41716244963946      -3.84741721379425       1.16809358700846
F         4.54151050286620      -5.12628538976963       1.64424523669494
F         5.39769419315095      -3.68118705441078       3.24467882526577
F         6.56209045420745      -5.60488864814959       2.67543156010458
