39
C11H21BF4N2 optimized with DFTB in AMS.
N        -0.28250616618639      -1.25584963942221       0.70311661437804
N         1.85444843628696      -1.07249019099994       0.90436055767652
C        -1.65884277967506      -0.98738769549696       0.29345027100038
C         3.21833396172606      -0.57071924344137       0.74104698592216
C        -1.78407132702237      -0.97266039464567      -1.23957432916186
C         3.34629281479719       0.87861969646749       1.20229624590303
C         0.75498831148591      -0.44687764499323       0.49310249492937
C         0.17209124320306      -2.44074956854730       1.22125250464930
C         1.51888159940507      -2.32175997099423       1.35160511581496
C        -1.65337889330975       0.43641301989109      -1.82820900399051
C         2.94894787704542       1.06075044613063       2.67012445773339
C        -1.67220641736093       0.39347862125606      -3.35465948139196
C         3.09615469294316       2.51804731293460       3.10437737991431
H        -2.27864802597427      -1.77665711480349       0.72605456514857
H        -1.96387215429664      -0.02851860238657       0.72423291005231
H         3.87861254637742      -1.22762685141898       1.31355613099673
H         3.46671023707357      -0.64215387381568      -0.32396648015309
H        -2.76183975445113      -1.38727893249276      -1.50355981729075
H        -1.01423527840499      -1.62060922144856      -1.66527282769831
H         2.73407811640922       1.51782259629220       0.56065125849537
H         4.39058524143207       1.17385410670564       1.06434775879076
H         0.71281922490088       0.54589311110515       0.08117125831680
H        -0.49055640882053      -3.25462852438727       1.45773339064221
H         2.25469039392934      -3.01499221928277       1.71954422321924
H        -2.47563257594681       1.06035166508479      -1.45878297555477
H        -0.71330457742910       0.88857428758587      -1.50243491175230
H         1.90941695607127       0.74369553050652       2.81059601358504
H         3.57901291013135       0.42463073226889       3.30177431552472
H        -2.57661941177080      -0.09713104977673      -3.71849396534556
H        -0.80079370575955      -0.14708191667854      -3.72286718270339
H        -1.64031236396009       1.40827497378724      -3.75031498678827
H         2.46262223992122       3.16251301015760       2.49405002955564
H         4.13060904853111       2.84566897504640       2.99625606149958
H         2.80311821875868       2.62889032144487       4.14851407588389
B         1.91931018744033       0.15979375090938      -2.34285286031068
F         3.25573018062934      -0.22399319264268      -2.27066881910411
F         1.71824375684432       1.27658899864539      -1.48417459138887
F         1.12149023734450      -0.90094405964785      -1.79919631912477
F         1.50632470888098       0.44099752330303      -3.61793386557317
