28
C8H18ClN optimized with ADF in AMS.
N        -0.00127610542064       0.16073114626803      -0.19214907541239
C         1.03872308259465      -0.61941670519706      -0.95993491420506
C         0.83230001205241       1.20855424271134       0.53491140758082
C         2.23421169796641      -0.73528031821813      -0.01078207694259
C         2.07815785393551       0.45081213534249       0.98139503206967
C        -0.69425075112257      -0.72248840461561       0.84085845287531
C        -0.98637134827613       0.80134214338409      -1.14179593511627
C        -1.65557404500818      -1.73567411992892       0.25545491602342
C        -2.06391759281531       1.62327635579222      -0.46557012398151
H         1.28679815196570      -0.01249066614625      -1.84498894269744
H         0.61197659611170      -1.57602821173892      -1.28954997300273
H         0.21757003675106       1.62074174541345       1.37723645301636
H         1.06508748662161       1.97889399907262      -0.21711118620447
H         3.17206775915441      -0.68458351141846      -0.58344142830208
H         2.22892548024983      -1.70032550085063       0.51764204286102
H         1.94805924507822       0.09388334306716       2.01491737368311
H         2.95254077164626       1.11709954121822       0.97533263150047
H         0.11670684159877      -1.22403829317430       1.38783125681958
H        -1.17506447118898      -0.01523848357257       1.56129336619916
H        -0.37057950333788       1.42776617134157      -1.80722553037001
H        -1.40846189895752      -0.01574181949856      -1.74746225659354
H        -2.03231921113787      -2.34514588250776       1.09132238686850
H        -2.53016991655609      -1.26193459720405      -0.21269658353508
H        -1.19443936228241      -2.42649700497414      -0.46898877925214
H        -2.63587512439768       2.14483782715625      -1.24930026290430
H        -2.75766590993797       1.00697833359003       0.12131319213466
H        -1.64951318516524       2.35856503093656       0.24094048868957
Cl       -1.30929765502207       1.75584541865132       2.90131372439796
