32
C10H14F3NO3S optimized with ForceField in AMS.
N         1.10990467341190      -0.00534919578034       0.54328046219848
C        -1.24852846393188      -0.00910909487608      -0.13929504549441
C        -0.27108335697025      -0.01864789227797       1.04020583306518
C        -2.70256892751031      -0.04172762809982       0.34010109841766
C        -3.66926372529391       0.00135005871487      -0.83974865370538
C         1.73607691344019       1.18858044893362       0.30756065106981
C         1.74304925061226      -1.18688976994639       0.26749893576923
C         3.02797098546670       1.21870306442215      -0.22256755857375
C         3.03488493452311      -1.19181564746732      -0.26316779588098
C         3.67742942475790       0.01978251569478      -0.51161658507222
H        -1.05332521572459      -0.89551977462296      -0.78203059145327
H        -1.07683815933173       0.90868106146302      -0.74408599150951
H        -0.44518918008674      -0.92117552671490       1.66826881983490
H        -0.45531725895957       0.86634547278794       1.69021713726178
H        -2.88586999948676      -0.96819896564908       0.92609663241383
H        -2.89911059897404       0.82875029326278       0.99829028821705
H        -4.71465754557494      -0.00110317494835      -0.46592459984594
H        -3.50861696272440       0.92389231402803      -1.43795753551914
H        -3.52069545205687      -0.88739087970552      -1.48947779422445
H         1.23364766819180       2.12619513140129       0.51491673352654
H         1.24604852382002      -2.13377216821891       0.44329201618598
H         3.51649255429792       2.16466868759468      -0.41690606131860
H         3.52854358445546      -2.12803120428046      -0.48909011568877
H         4.67382280552572       0.02960262547629      -0.93334440527884
S        -4.24310593659227       4.46739561933330       1.40675680903322
O        -5.61205367937592       3.77195819017502       1.44139198947392
O        -4.12283503292081       4.93694987854586      -0.05039085866563
O        -3.25612779901097       3.29494919108730       1.47359189139645
C        -3.98160569471147       5.74670179884616       2.66514082123758
F        -4.11430251742886       5.18826711726348       3.92222217604202
F        -4.91682005816530       6.75105967419099       2.50521720899370
F        -2.71118199117139       6.27256457156654       2.52717315479357
