41
C11H22F3NO3S optimized with DFTB in AMS.
N         0.14359127669306      -0.05651607543072      -0.11184486897681
C        -0.25001918462131      -0.62443926585880      -1.44401422819865
C        -1.16430016531398       0.07261727912613       0.60311542583982
C        -1.55533298359530       0.07575349948149      -1.80328969350709
C        -2.16513895539773       0.51711827229480      -0.46273568130938
C         0.76769074707268       1.29377447469031      -0.32730117026912
C         1.04986295194800      -0.99333605275858       0.63013914173952
C         1.28223051498258       1.99464092332056       0.92642443878906
C         2.40965818859594      -1.20420728961643      -0.03498622955697
C         1.96989630091127       3.29127967213945       0.49533705547010
C         3.21869802679547      -2.21653742570374       0.77199124408993
H         0.54709609351509      -0.45104172655904      -2.16863708755464
H        -0.40021118882636      -1.69855296486468      -1.31396751512020
H        -1.42576872299899      -0.91201633230927       0.99790575605015
H        -1.06596905480841       0.77477439287667       1.43036251677803
H        -1.36392320735631       0.93731430381779      -2.44554588167919
H        -2.21466540325887      -0.60835058123367      -2.33949467664043
H        -3.13323489125376       0.04577951965061      -0.28467245305888
H        -2.30519787005321       1.59940041781090      -0.43634381927646
H         1.59763477405344       1.14904691167548      -1.01844578445724
H         0.01850068547179       1.91577765595464      -0.81928443603214
H         1.16921690506824      -0.59441167763363       1.64073906144872
H         0.51910953390672      -1.94753400538669       0.70244107386143
H         0.46484613512795       2.21823546202696       1.61952116410191
H         2.00959565806499       1.36820668772664       1.44820430216515
H         2.96205565596861      -0.26457108536339      -0.09165296406265
H         2.27568984775732      -1.57293027905565      -1.05385178281545
H         2.78509564523542       3.06751761699359      -0.19330679729923
H         1.26191223080603       3.95279034531389      -0.00444363805592
H         2.37374877048892       3.80281081839461       1.36813383622713
H         3.37868972080570      -1.86042733336049       1.79085600757113
H         2.70549843355546      -3.17838228783569       0.81440321760658
H         4.18847882404144      -2.36034289493634       0.29771754149112
S         3.16504341391484       0.75469741763616      -3.14315463574307
O         4.27603953904729       0.70916453467989      -4.04952627577903
O         3.43394378692733       1.34538677189286      -1.83701869867231
O         2.35710368530573      -0.45868489205795      -3.06670330493154
C         1.96076460806229       1.96302681545851      -3.88812662889293
F         1.70634013287057       1.71187917276284      -5.16299291849962
F         2.36794218751175       3.22014790738179      -3.77546178559387
F         0.78716367187833       1.86533457475821      -3.21829404434694
