39
C9H20F2N2O4S2 optimized with DFTB in AMS.
N         0.31477027166313      -0.08059176235967      -0.33413756533187
C        -0.54883218600087       0.69582320467568      -1.29213691339911
C        -0.47056446305357      -1.25066271952334       0.17911060657669
C        -1.87585603933046       1.13462095844861      -0.69255172100271
C        -1.80140323471125      -0.85473917920937       0.80995214731350
C         0.77137817671570       0.77587687036184       0.81553343395304
C         1.49519920489587      -0.59301631473664      -1.12374731376888
C        -2.66258554681562      -0.06729083970561      -0.17554588639818
C         1.74524616541058       1.88385812524492       0.43945459593022
C         2.45639973994794      -1.47849201177576      -0.35011689942652
H        -0.72641329716011       0.04408439899802      -2.15018783175470
H         0.02477629307680       1.55711314498226      -1.63232540875118
H         0.14762795531080      -1.77468303917770       0.91036859107270
H        -0.64544672763774      -1.90958920931841      -0.67585167625687
H        -2.43728467889513       1.63245087964806      -1.48708908804725
H        -1.72496747379114       1.86177480098072       0.11018159988277
H        -1.63593271787292      -0.27000265904302       1.71902949581457
H        -2.31142267098967      -1.77787115672121       1.09800253607152
H        -0.12095885569502       1.21202881706495       1.26698175737229
H         1.22950992610662       0.10792516184374       1.54936014544919
H         1.09045023488352      -1.13900757273079      -1.97810448102857
H         2.02157192207370       0.28155222280419      -1.50039774102703
H        -3.57724898735820       0.26728001296588       0.31906017957630
H        -2.94307021406634      -0.71236368943285      -1.01398247091174
H         1.85694421943231       2.53024750678409       1.30995814890859
H         2.72486493020566       1.48757314956867       0.18136605626229
H         1.38289223667200       2.48544181349410      -0.39090130152487
H         3.28142418327829      -1.71120374116622      -1.02359074976947
H         2.86568212954454      -0.97672864237147       0.52519438982508
H         1.99672374392732      -2.41632365170212      -0.04123833278582
N         2.22555831543428       2.10663241047016      -5.15008770386464
S         1.82666207287749       1.37394371652959      -3.83525092735558
S         2.27449250559477       1.17914810109567      -6.47224013045651
F         3.15910847915147       0.51758813026156      -3.36883127591184
F         0.70707077663686       0.91643914016095      -6.75919933527647
O         1.70944343267941       2.34349490923369      -2.77365510855276
O         0.80827433560743       0.35271289502180      -3.87851978778996
O         2.83458513743984      -0.11852546182245      -6.29576275624850
O         2.71018749981176       1.99880870685747      -7.54843461496770
