61
C17H29F6N3O4S2 optimized with DFTB in AMS.
N         0.45426411569539       1.52966300698478      -1.65598916492019
N         1.05653304071211      -0.53838999541329      -1.59340293026572
C        -1.34646318020680       2.83826999278896      -0.62544849283001
C         0.06891678425796       2.86587115433001      -1.21302916574280
C         0.57364230261251      -2.30229206611062       0.05014733518395
C         1.49385159546752      -1.83529406918337      -1.08308635465848
C        -1.43100639363888       1.98877770593591       0.64425402974684
C        -0.88292891887304      -2.42157434091015      -0.40456115251326
C        -2.87085819363110       1.89813219421853       1.15653704373316
C        -1.80475925680941      -2.78966264273569       0.76133806753129
C         0.98542702592830       0.58627040605123      -0.87842001921825
C         0.16455856805128       0.99560872200790      -2.87894102462550
C         0.54339834003610      -0.30925546260782      -2.83951402521441
C        -2.93641079139441       1.08748568139910       2.45442595618883
C        -3.27115828156253      -2.71735681672608       0.32572188385845
C        -4.37137485270856       0.95553070526243       2.96027100396882
C        -4.21742363555549      -3.06317353124612       1.47272779903649
H        -1.62894034484254       3.87119319258916      -0.40431071752772
H        -2.03577606708300       2.44906418833567      -1.37650488729752
H         0.64716257729115      -1.59486103580736       0.88252881904228
H         0.94409669653021      -3.27065931086677       0.39891591069974
H         0.10905653013014       3.52648423781028      -2.08231665130279
H         0.79904322408307       3.20160616037459      -0.47074499099154
H         2.52395536264906      -1.73568046137176      -0.72767342633271
H         1.47066778408932      -2.53889062972331      -1.91841061237323
H        -0.77825243840247       2.41380323792765       1.41602378565049
H        -1.07984463341163       0.97488397007762       0.42388493747188
H        -0.96105432945114      -3.17493779105166      -1.19427730123670
H        -1.20697305291788      -1.46567657153252      -0.82332585157715
H        -3.26870591034691       2.90374065104508       1.32805980246469
H        -3.48123627345467       1.41428663672693       0.39023379522368
H        -1.63501356127538      -2.09027597052802       1.58901349097239
H        -1.56486427591871      -3.79659526842126       1.12133636865085
H         1.33064607411977       0.71924410597507       0.13169023500366
H        -0.30664154212494       1.56960812902682      -3.65772564022766
H         0.47870918597294      -1.08249371542488      -3.58398703905598
H        -2.52156523833347       0.08875922624315       2.27856443246688
H        -2.32038544903603       1.57343222809283       3.22023830236416
H        -3.43944919252262      -3.40591591321437      -0.50748499736446
H        -3.48489672658098      -1.70672569503877      -0.03160977631776
H        -4.80920274775195       1.93956462809112       3.13431041621888
H        -4.98266528521291       0.42706844327374       2.22941565639485
H        -4.38711154391466       0.39709437145915       3.89663258997924
H        -5.25024321107231      -2.98035923728447       1.13411631049202
H        -4.07179796257936      -2.38008088171479       2.31139116654113
H        -4.04375398990876      -4.08316601686150       1.82001818256410
N        -4.74311417002552       0.44423653852583      -3.16116716232051
S        -3.17410501032306       0.40435774654995      -2.98109396042596
S        -5.55641504920966      -0.84468356053137      -2.60836546267969
C        -2.49643006294949      -0.94663661672684      -4.12189103835040
C        -6.22018759322615      -0.28234828055545      -0.95484225781311
O        -2.63499036818145       1.62371076946432      -3.55042569747318
O        -2.64424448871104       0.04306040279599      -1.67190803103074
O        -4.73996893057370      -2.00026504468793      -2.32574813009125
O        -6.73332971901942      -1.00389592362842      -3.41372865830157
F        -1.55565989572748      -0.40646455820564      -4.90552734039849
F        -3.42604886719103      -1.47101861405733      -4.88814131982359
F        -1.90968447148718      -1.90999203369886      -3.41635279949051
F        -6.95179614471947      -1.24309029309715      -0.41410331135675
F        -6.97052536127790       0.79749019204278      -1.10627760895245
F        -5.22808337988166       0.01099148345703      -0.12056060484672
