56
C16H19F18N2P optimized with ForceField in AMS.
N         0.43731730180419      -1.46400165072719       0.19912335816701
N        -1.70384813741133      -0.86792380571318       0.14235224372433
C         1.80993331410247      -1.64914400590482       0.66574534308712
C         2.77635743922109      -0.72725192722456      -0.08839712351250
C        -2.99392766917424      -0.30480954196227       0.53725854764971
C        -0.58312652112610      -0.91784259109408       0.88835371415246
C         2.46896194370812       0.75494381089883       0.16879130496202
C        -0.05609568521086      -1.78001670487229      -1.01519794521194
C        -1.38557573168347      -1.41298567323930      -1.04948468994376
C        -3.32621479007098       0.94710787286278      -0.28458572725735
C         3.46685112724824       1.65805951213660      -0.54921557360950
C        -2.31201798815946       2.06785303483337      -0.05937803837954
H         1.87532442015811      -1.44093872674254       1.75662344479534
H         2.10870309649753      -2.70798764116025       0.50824478620246
H         2.71881521140197      -0.94083632132893      -1.17815479631952
H         3.81142740345486      -0.95157195121342       0.25002897377417
H        -2.98367516880897      -0.04415089865894       1.61877364039307
H        -3.78697233733031      -1.06781233767492       0.38337694271990
H        -0.50502486409718      -0.54121431108372       1.90089747742838
H         1.44694789297702       0.99916495772701      -0.19376574116644
H         2.51399672861582       0.96385537048482       1.25989478694269
H         0.50855423012003      -2.23852648622768      -1.81654985261033
H        -2.06515742838801      -1.52587223680909      -1.88405193550565
H        -3.36051256171406       0.69201178235535      -1.36569573404217
H        -4.33347636002048       1.31199471559707       0.01094196554641
H         3.42361160288434       1.48483651096447      -1.64566424999864
H         4.49772963855806       1.46021732215590      -0.18592374805461
H         3.21721316079483       2.72119304434674      -0.34788555848086
H        -1.30563608748036       1.76044891049061      -0.41485829227052
H        -2.25646202391563       2.32864856924761       1.01889338238726
H        -2.62360376948714       2.96945076837732      -0.62754344357304
P        -0.70275521319062      -7.32938761979456      -0.33050641136631
F        -2.08501871578583      -8.29006756621757       0.04411251290288
F         0.55718333820638      -7.72315609021356       0.77721852240749
F        -1.88488107206012      -7.11424836225614      -1.56217753734224
C        -0.04444060504948      -9.03959628503247      -0.94775502565023
C        -1.47474587706186      -6.49317530496303       1.23549241552060
C         0.08089422850977      -5.83094628711212      -1.24243369992586
C        -0.72520017119404      -9.60969121867138      -2.21143342235279
C        -0.68379564472716      -5.33002362876474       1.88631995963586
C         0.55301563471328      -6.03962109624090      -2.69304028067398
F        -0.22214709730683      -9.98192254203299       0.05865703749886
F         1.31773004844264      -8.97177274862752      -1.19425587657311
F        -1.64493587457216      -7.44772916429038       2.23370728598317
F        -2.72645074324321      -5.99835169572684       0.90128955091306
F         1.17776949326736      -5.40632398264049      -0.51395839965332
F        -0.84116603122362      -4.79842299721453      -1.27658796403404
F        -0.19296833011677     -10.85796154720858      -2.48233591812539
F        -0.50211320234659      -8.80868078173002      -3.30962165230396
F        -2.08793217223552      -9.75838309811952      -2.02959665014030
F        -1.27146754372857      -5.02072230033871       3.10055433422797
F         0.63383216433761      -5.66617036069270       2.13228720009352
F        -0.72635517422342      -4.18961082122140       1.11291724853363
F         1.45602713368352      -7.07569575952649      -2.79142371919621
F         1.19139595012233      -4.88813950856567      -3.11962350176859
F        -0.51691979148519      -6.26006484043897      -3.54037721790665
