40
C12H25NO2 optimized with DFTB in AMS.
N         0.20086720170692       0.32661750277609      -0.03369277307455
C        -0.57891554207674       0.90787085729571      -1.17425110098906
C         0.43724690190629       1.51747166306764       0.85320645983249
C         1.49959647294206      -0.21644844283625      -0.54908337285762
C        -1.51793159635055       1.93089966310176      -0.54906505210465
C        -0.81127663753949       2.38716762202573       0.73471460079130
C        -0.60614720082966      -0.68979949855957       0.71302628247613
C         2.36865030167641      -0.86340345150792       0.52630673877706
C        -0.89916678511983      -1.96674188881694      -0.06267045693168
C         3.76768256683253      -1.17187034371025      -0.03188854229100
C         4.66113314793011       0.06571943205373      -0.08893446642585
H        -1.08343978607951       0.11818633091991      -1.72922503831185
H         0.13822413823689       1.42513936408512      -1.81657148014975
H         0.63950732920736       1.18336197212408       1.87108921377223
H         1.31148552865365       2.03995727784628       0.44525048212487
H         1.26781821501070      -0.93210206911637      -1.34153785467233
H         2.02418945467651       0.64285486422192      -0.98352206082350
H        -1.64135891456637       2.76626679560928      -1.23920428533262
H        -2.49793085655906       1.49686224455735      -0.33562315510712
H        -1.46238017689667       2.27790260824940       1.60541663802995
H        -0.50764509867830       3.43134742481837       0.64757630218980
H        -0.05884872122759      -0.93201671678460       1.62689343465277
H        -1.54377875706709      -0.20528068602101       0.99486995551300
H         2.46342573787397      -0.19575807251141       1.38669151131785
H         1.91353942505286      -1.79694364392727       0.87166640344722
H        -1.52384951226842      -2.60163744155007       0.56533914955821
H         0.01241375036481      -2.51223614245525      -0.29871515382447
H        -1.43838514783092      -1.76547574023031      -0.98647067978589
H         4.23253252600992      -1.92290361506256       0.61541640790431
H         3.67028707902369      -1.61193077882940      -1.03016961322989
H         4.80619082920351       0.47119572969343       0.91303009696732
H         4.22275496092641       0.84337266701790      -0.71323500069466
H         5.63450612443363      -0.20368762906218      -0.49971214509110
C         2.84816836427499       4.48839050077075      -2.20892898296927
C         2.06082657370458       3.38019678578246      -1.47612477832640
O         2.74566817238623       2.53672462245720      -0.84751223745658
O         0.81744529588956       3.40334566993214      -1.56222843392655
H         3.51508451500602       4.02689084128722      -2.93615344810878
H         2.16701781296875       5.17087566185555      -2.71282310394273
H         3.45147308719175       5.03396391043229      -1.48455393162660
