40
C12H22F3NO2 optimized with ForceField in AMS.
N        -0.52704909656204       0.00164807195292      -0.00214122494412
C        -1.45718286320503      -0.56428533195615      -1.02730321288006
C        -1.41497223232933       0.60854878961417       1.03665882235536
C        -2.85983956073449      -0.07340353048136      -0.72308618498951
C        -2.84122833073553       0.17259519653106       0.75914731469751
C         0.32637637331258       1.06055427654788      -0.63386762508934
C         0.28669903121414      -1.09590587056232       0.61616794167294
C         1.36389425268379       1.70036678505403       0.31927241998379
C         1.28036802660867      -1.78023950715584      -0.35358179967162
C         2.09745966900600       2.84944715745976      -0.36476017790207
C         1.95235167921994      -2.97941149201148       0.30836561250415
H        -1.18113796808283      -0.29101254257298      -2.07157080942086
H        -1.49185565495096      -1.67782395158051      -0.99719849501121
H        -1.13150924038730       0.32830932972105       2.07707632217553
H        -1.40535591676331       1.72245223466391       1.00162602921055
H        -3.05235061440158       0.87964328972572      -1.26362311722956
H        -3.63238640652385      -0.82347555261628      -1.00123581541000
H        -3.06021366360515      -0.77276625216166       1.30314888010621
H        -3.57918664557565       0.95153545683511       1.05144197915126
H         0.86784912253644       0.65080894273325      -1.51486599033043
H        -0.32425438574138       1.86967705602181      -1.04049258811830
H         0.85815644560343      -0.71469538962787       1.49096290713216
H        -0.39520246713470      -1.87481707027162       1.03042701319982
H         0.87435273011068       2.09061018363739       1.23546315456489
H         2.12481108861187       0.95399308520833       0.62540464522152
H         2.07963265705294      -1.07314801557470      -0.65616070768031
H         0.76303546565676      -2.12884757277272      -1.27102337410605
H         2.59238321515606       2.49530463439046      -1.29389980044591
H         1.38876072214268       3.66751357012934      -0.61379056816527
H         2.87671388133669       3.24659663891894       0.31777513852090
H         2.52583109457851      -2.65350070933016       1.20216271794773
H         1.19264342419797      -3.73003471559687       0.61279924579706
H         2.65393332990296      -3.45575001881510      -0.40872090660000
C         2.91423226347076       6.56922268997767      -0.61589829765698
O         3.34153568227101       6.06238307015867      -1.64116367681238
O         1.97529556361770       7.34673413127168      -0.67391105865048
C         3.53274426736985       6.24247231047686       0.71159798578689
F         3.98989573935264       7.40335295137209       1.30734529734743
F         4.59598557775972       5.37022388561588       0.55241129763974
F         2.58513732585934       5.65565216106964       1.53020403499899
