59
C17H36BF4N optimized with ForceField in AMS.
N        -0.51907384944369       1.77835806228261      -0.21257757265069
C        -1.37923510388065       2.31618696430400      -1.31574573087783
C        -0.19616747167597       2.89826195825456       0.73012857594117
C        -1.20014790833829       0.66787744674257       0.54029119522463
C         0.75689181376000       1.31010646160425      -0.85360185919270
C        -2.66320956300946       3.00848885744592      -0.82958690540212
C        -1.43463915838216       3.63900666678515       1.26998631164004
C        -2.32904751502562       4.13811440194856       0.13924119167374
C        -1.50997688889398      -0.60919330031422      -0.27804399033317
C         1.77665135075842       0.62622059761634       0.09139742432388
C        -2.19886735497477      -1.65799259733340       0.60465283708269
C         3.05260855897937       0.25260324255923      -0.67404832516264
C        -2.48841166233372      -2.94225857441958      -0.18100896438628
C         4.05671104639158      -0.46912745481118       0.23317702587611
C        -3.19438851377009      -3.97856802551489       0.70076172089219
C         5.33324137630681      -0.82545635200533      -0.53747801177640
C        -3.46645213194079      -5.26662057353981      -0.07017510631493
C         6.33694423100316      -1.55034104309462       0.35413907962008
H        -0.81024830159279       3.06972648581419      -1.90947390557039
H        -1.65323547366394       1.52387738423943      -2.04234801034515
H         0.36335665850029       2.52499902758525       1.61465827435381
H         0.45442403667840       3.65331008229568       0.23127697434398
H        -0.59062045884986       0.37818126793641       1.42419104179304
H        -2.15949643812633       1.01240682640468       0.97137334426725
H         0.53464889240927       0.60951932274042      -1.68943316722008
H         1.27448520284260       2.17267566932159      -1.33411240183173
H        -3.19459736670455       3.43713149723654      -1.70709441132651
H        -3.35945047306234       2.28387439679723      -0.36037698294954
H        -2.01340867984855       2.98662668768265       1.95424752336113
H        -1.09802529199128       4.51216408170530       1.87010670802950
H        -3.26884687184209       4.55109061775231       0.56478483775261
H        -1.81140881813280       4.95631376599681      -0.40824018714194
H        -2.18799613532712      -0.37644109545452      -1.12319024898517
H        -0.57843828584212      -1.05494099269312      -0.68008057032811
H         1.34918949596307      -0.30226734066865       0.52066797561119
H         2.05881771487116       1.30434067063310       0.92122256542559
H        -3.15456969366711      -1.24081231590727       0.99144896752449
H        -1.54333822090578      -1.89886410402552       1.46983612474438
H         3.52096036203896       1.17701063711149      -1.07715116884398
H         2.78959948637345      -0.41001837171060      -1.52720769599471
H        -3.13388289376133      -2.70316089032557      -1.05434568432202
H        -1.53125618811640      -3.36785502694845      -0.55425715566253
H         4.31658672440392       0.18772728815098       1.09200347883274
H         3.59339507706548      -1.40010991158404       0.62727534087451
H        -2.56101247615232      -4.21513905518673       1.58295241042715
H        -4.16059656146010      -3.56584202006267       1.06338603431254
H         5.08036258672244      -1.48088130015739      -1.39886063296482
H         5.80539606008151       0.10152833033063      -0.92890948236583
H        -3.97778256679207      -5.99636666963865       0.59257977723790
H        -2.51316199637513      -5.71485418914885      -0.42175138220242
H        -4.12022247396934      -5.06298310731477      -0.94443033222385
H         6.62825437346981      -0.90713840492582       1.21126526614424
H         5.90087627574792      -2.49716321262404       0.73711414909672
H         7.24807183229288      -1.79220159784354      -0.23276730358822
B        -3.66844269206177       3.57178468755483       4.44215107162381
F        -4.43303346439428       4.01405802617054       5.55364604032256
F        -2.42619230339200       3.05424641450974       4.89650000240637
F        -3.43534519695543       4.66547373808181       3.56723697442910
F        -4.37956679020449       2.55494005985842       3.75106696527463
