54
C14H26F6N2O4S2 optimized with DFTB in AMS.
N         0.49934650867223      -0.77728819437519       0.69059983118529
C         0.44327926658187      -1.52467494217945      -0.61588085591466
C         0.42988138638676      -1.86756534751084       1.72023716956819
C         1.79518691676015      -0.03409234900823       0.83967440071130
C        -0.37629150442901      -2.79098443131793      -0.35984196828843
C        -0.54492599537989      -2.89036715225364       1.16096848178848
C        -0.68964746744306       0.13353052505168       0.77553491350253
C         2.01399476716200       1.05449848703249      -0.20853804622217
C        -0.76046794926855       0.97665604114154       2.04046337094931
C         3.50053865558854       1.44453794308121      -0.26150319520392
C         4.36014755614589       0.38014345031281      -0.95230143336864
C         5.84007701530480       0.77512033449754      -0.95274046572568
C         6.69200371881278      -0.31483978765163      -1.60152255217551
H         1.46752024732826      -1.77502421434289      -0.89295845694953
H         0.00800242024036      -0.88244867688708      -1.38155472727406
H         0.13827461435233      -1.45478976191399       2.68416937896977
H         1.42662553576511      -2.30049933884019       1.79805665624702
H         2.58082120900567      -0.78519482524789       0.76495472489430
H         1.82108215679365       0.38265896645808       1.84823498882786
H         0.16821793115343      -3.65708466704134      -0.74035602186046
H        -1.34452551126706      -2.74247242455088      -0.86158496239839
H        -1.57185489148473      -2.66773153066529       1.46055411965642
H        -0.28239899497624      -3.88476894971677       1.52411139787739
H        -0.65293182268410       0.78830783495751      -0.09819952794729
H        -1.57761247030345      -0.49767120077430       0.69639196860353
H         1.70305579968289       0.70089507653061      -1.19554377011424
H         1.41639897428473       1.93773983616271       0.03600734237046
H        -1.69720251775205       1.53297834680780       2.01425704834857
H        -0.75316960417730       0.36481196219643       2.94034414319375
H         0.05831662672201       1.69156838499540       2.09223797327203
H         3.86489989836761       1.61295425519278       0.75674400224561
H         3.58595166455422       2.39003550072303      -0.80638910841443
H         4.01112074483547       0.24379772077811      -1.98197314300793
H         4.25861706488966      -0.57855202995465      -0.43696327591688
H         5.97270174685261       1.72104447766280      -1.49010359428513
H         6.17074160132172       0.92550739550837       0.08020537168345
H         6.40128918056269      -0.46223934343853      -2.64284135780706
H         7.74533418399547      -0.03782816407774      -1.56639413545112
H         6.56293087647383      -1.25673965452305      -1.06881693007484
N         4.17399741982859      -3.96769383223209       2.04011130205382
S         5.32564541753572      -2.85081126339744       2.17012605918340
S         3.27303222457688      -3.94828383894033       0.73051983824227
C         4.44363683066599      -1.39765048831067       2.99547363513382
C         4.06106946883041      -5.08882161166590      -0.52841963760168
O         6.24970610641294      -3.29851339310572       3.16988194802293
O         5.83511009930327      -2.30589163666020       0.93814251372659
O         3.17159479554381      -2.67120811315320       0.02847074048306
O         2.01444955476517      -4.59501791421281       1.04193932435028
F         4.92228073449883      -1.17208982915304       4.20283200275250
F         3.13023975329185      -1.64688353892487       3.11020408958050
F         4.56445232232687      -0.28459929194641       2.27692431244302
F         3.22285095368654      -5.21919270503776      -1.54920718745516
F         4.27660237709166      -6.27829058304666       0.00460015485120
F         5.20010685681044      -4.59496433623231      -0.96924228046148
