48
C12H22F6N2O4S2 optimized with ForceField in AMS.
N        -0.54370988661720       0.28523467087902       0.14569011740361
C        -1.54279981679110       1.23048654400014      -0.44912416146966
C        -0.88799331939829      -1.12508980062831      -0.21217350294075
C         0.78940574041656       0.64839524433555      -0.44141905905126
C        -3.01216142071200       0.88163463624754      -0.14322438235222
C        -2.33567226476114      -1.51012285684432       0.13791629346952
C        -3.32335712354308      -0.56016831654880      -0.52830470579891
C        -0.49730864694892       0.45943128757378       1.62328596090591
C         1.99778989621857      -0.16490155345698       0.08424295241957
C         3.30019506223302       0.31470080744892      -0.56944557910390
C         4.50033405124657      -0.47384757709185      -0.05229393378952
H        -1.44151223184346       1.25012149341796      -1.55949061576144
H        -1.35350844897860       2.27042279029977      -0.09669260734542
H        -0.22493050493998      -1.84312108943492       0.31699124242272
H        -0.74307181434242      -1.29288127178836      -1.30419305467552
H         1.00197565891901       1.72683298687398      -0.25276245514715
H         0.76176620244917       0.52887910019036      -1.54957000776502
H        -3.67142451662931       1.55754976427637      -0.72994269201313
H        -3.25223064116280       1.05375149634454       0.92625287330887
H        -2.48620571240118      -1.50648851344921       1.23847829580295
H        -2.53326155330422      -2.54424082448785      -0.21816372801319
H        -4.35693599341636      -0.81488460118965      -0.20900172586402
H        -3.26512384953658      -0.67426106843196      -1.63347331132624
H        -1.50054390699173       0.40503991007738       2.08749886968399
H         0.10119026411841      -0.33908181280878       2.11099733369053
H        -0.05588189471267       1.44357320134491       1.89576321981187
H         1.86909512293614      -1.24208442214386      -0.14792161497707
H         2.10268397910548      -0.03907959696725       1.18141507900409
H         3.45786419650127       1.39242980062256      -0.34531658152510
H         3.23643771441621       0.19038754543219      -1.67249260823356
H         4.38409059249663      -1.55291308880768      -0.28926988964586
H         4.59987782353008      -0.34826882254192       1.04712123570334
H         5.42713634640129      -0.10107100658812      -0.53691229253459
N        -0.77248609149529       4.16548484623092       5.22080111587797
S        -2.06093533839582       3.28372828971165       4.72097940742033
S        -0.27766300628637       4.20676205639297       6.78352087830546
C        -3.53389865965266       4.27943581288097       4.81476313005624
C         1.07585833128000       3.06988126095265       7.00145021411394
O        -1.85479919309530       2.87506608114449       3.29105026553834
O        -2.22669990827341       2.05853578361657       5.57693215616643
O        -1.40127882771000       3.82926455086897       7.70870541852085
O         0.19948907279148       5.59291626753537       7.11282134022882
F        -4.61892895440517       3.53987938223386       4.38422063999111
F        -3.38986865897541       5.39163638539727       4.00735946396355
F        -3.74425944838938       4.68439176980761       6.11856650912356
F         1.50001265895307       3.10193271181564       8.31631863445661
F         2.12222983391707       3.43204664992245       6.17465557311438
F         0.66431559707982       1.78955634623345       6.68451666412898
