50
C14H15F18N2P optimized with DFTB in AMS.
H         1.63836293808537       3.32581130555629      -2.35413352382098
H         0.06542109446590       3.54216404897939      -1.55461210928477
H         0.25111406006165       2.30899371466732      -2.83866756577854
C         0.73857855467299       2.81709472340748      -2.00718409041158
H         2.66482730186943      -0.70533245612769       0.29420216460423
H         2.20564777092754       0.43217076232193      -2.19084195685424
H         0.32814022049599       2.76770065261979       0.76854180910037
N         1.11784603703095       1.84256809777912      -0.99693307974588
C         0.88515772815140       1.97362698832418       0.30511826262180
N         1.48064672310154       0.96305488644813       0.93218819319534
C         2.10683114803073       0.16994581878049       0.01148912458948
C         1.88330566563388       0.72831839114154      -1.20809337422944
C         1.49643736067902       0.78461548518133       2.38085556039764
H         2.26405088112514       0.04429473238074       2.61736862830096
H         1.77111210146656       1.74361200545362       2.82815096977946
C         0.12089112259435       0.33293598886086       2.87506973326840
H        -0.13008121444480      -0.63243578671280       2.42392054247739
H        -0.62975552534213       1.06152340619165       2.55574335680532
C         0.11379151722804       0.22193269153500       4.40282367982738
H         0.86816843522976      -0.50628241733545       4.71865945974306
H         0.38039336096983       1.19168572255014       4.83454713565479
C        -1.25889389696215      -0.20496024799515       4.91761679367303
H        -1.53733705833875      -1.17679032686508       4.50777616547176
H        -2.01724397927148       0.52435579122163       4.63095534207899
H        -1.23990126400050      -0.27796693582621       6.00471379387891
P         2.35685194117804       5.22003147229729       1.29308185049446
F         2.14348417055342       3.75855639267553       2.17517448799181
F         2.02417246553575       4.31382727938025      -0.12845125959821
F         2.66866426154112       6.09348418649236       2.68027510677421
C         0.42741201084485       5.46587521453471       1.60712803442520
C         4.24210832434967       4.68085165546177       1.23297293136452
C         2.52049297662910       6.78595871391552       0.09133421514872
C        -0.18924604890575       4.83680347723205       2.88994634159537
C         4.64214851206310       3.54183389377825       0.25792323912586
C         2.89441749268374       8.19237193787085       0.63048432051312
F        -0.30032014425232       4.93930404455103       0.58781866969334
F         0.14721158107317       6.77501181960184       1.66115487490048
F         4.58853279547424       4.24698114714625       2.45775047303567
F         5.03075315653778       5.73091668785184       0.95550627276598
F         1.35111187070190       6.91562091653498      -0.56732045503196
F         3.44448956299665       6.46709381982837      -0.83862793639618
F        -1.38952044373992       5.35975811183612       3.13215898744801
F         0.55672656267144       4.99971558208164       3.96919587478941
F        -0.37280744923181       3.51179252042381       2.71039719875298
F         3.91394241439058       2.43770895648913       0.49336798860203
F         4.46496107944005       3.87275495633665      -1.01738034927963
F         5.92162576619968       3.20881486223450       0.41826821056591
F         2.97319554674594       9.06438760835174      -0.37638227301495
F         4.07054634000624       8.17132930816189       1.24829635986071
F         1.98147035935311       8.63787130239334       1.48749213923025
