37
C11H20F3NO2 optimized with ForceField in AMS.
C         2.69529857478602       0.34311009810936       1.56432371028912
C         1.65336475741509       1.28149210139478       0.97150671293408
H         1.43622828473813      -0.82942885361524      -0.90380030035353
H         0.42121450550273      -1.69477975974890       0.29921972619007
H         3.18391759131187      -1.45840170293960       0.43860462077428
H         2.11040253183806      -1.71841030319704       1.87492308352806
H         2.63163356034550       0.35266684372415       2.67460828187759
H         3.72101856001887       0.64325140014450       1.25656460015817
H         1.36572266776593       2.07084731446949       1.70396195314843
H         2.12656649879044       1.79842807351045       0.10306859001857
H        -1.20204114064913      -0.48492517996817       1.47332423477956
C        -0.42925595351591       0.28367363342049       1.68893358012959
H         0.11381205959141      -0.05825456088187       2.59784003852613
H        -0.94241863940964       1.23884381116059       1.93774818539376
C        -0.17732411635153       1.14640844398717      -0.61528357047961
H        -0.28905811056652       2.23022745342680      -0.37965510087570
H         0.46635468990497       1.11057601405253      -1.52387961108049
H        -2.29912487070709       0.75001374310508      -0.14559217970907
H        -2.98656973019528      -2.10122054654531      -2.61642713571558
C        -1.63695569668029      -0.77177190987205      -1.56512177811165
H        -0.82548605628461      -0.91057965190226      -2.31188428256398
H        -1.51095198752524      -1.50659913732092      -0.74677550239312
C        -2.97822257995713      -1.05836785503149      -2.23512311174754
H        -3.14054099615672      -0.36774275700572      -3.08988657990427
N         0.49494647497027       0.46245922862218       0.53803475694059
C         1.10817703218699      -0.83344114621882       0.16079266985249
C         2.34460768830383      -1.03263655234603       1.03088099337050
H        -3.80704483743536      -0.93973545089613      -1.50444523437098
C        -1.59515319566201       0.65302877162528      -0.99852778372138
H        -1.97026614953615       1.34847164068685      -1.78224978090658
C        -1.32882557952014      -2.35627575974031       4.09520095443261
O        -2.19531701897401      -1.50843225656264       3.95245897414520
O        -0.47286968167463      -2.20566895146000       4.95190326649018
C        -1.31420450614441      -3.58195029544925       3.23147807703721
F        -0.08873685112818      -3.68990695627332       2.60029374563081
F        -2.30991803918574      -3.51339754156421       2.27247977465333
F        -1.52141615151041      -4.70004170660043       4.01789785073313
