38
C10H22BF4N optimized with DFTB in AMS.
N        -0.07986274703578       0.00754971511561       0.00441977759190
C        -1.31829911315477      -0.19637507487462      -0.80966085245178
C        -0.62114440847450       0.56188090086820       1.29016750153936
C        -2.36374233077330      -0.71498077878865       0.17939173200347
C        -1.87614524588666      -0.25473519566822       1.56342363322665
C         0.83862242490527       0.98933291052999      -0.65514705836982
C         0.60424626847797      -1.30455956638567       0.27202534533909
C         2.11990766895133       1.25460376670222       0.13651229365292
C         1.20003643901945      -2.00079572235899      -0.94629161782022
C         2.92160469464300       2.36096059906502      -0.54561218078852
C         1.90315770749487      -3.26990600237494      -0.46098892444786
H        -1.61110750428813       0.77401400535729      -1.21756260726369
H        -1.11592642247071      -0.88186092904504      -1.63165799361934
H         0.12369484058488       0.47627615643584       2.07986694585650
H        -0.86107736996113       1.61354332285459       1.11523394829083
H        -3.34336947178160      -0.29868648692552      -0.06196854976399
H        -2.43661574080605      -1.80298215348418       0.13083655929289
H        -1.63435333844179      -1.10579977525796       2.20309028749531
H        -2.62347617527901       0.35596950605004       2.07177608579767
H         1.06983055644086       0.60247972061160      -1.65099673057433
H         0.27323134305174       1.91844653067050      -0.77415840846821
H         1.39617151085080      -1.10430055747874       0.99241262541988
H        -0.12621441173684      -1.95433520040549       0.75471686114902
H         1.87802748770543       1.55528915230586       1.15765720528791
H         2.72926884754319       0.35029732897222       0.19484093606493
H         1.93219168441945      -1.35762938786790      -1.44144014807645
H         0.42952918520240      -2.26456795837865      -1.67769744984031
H         3.18390348044477       2.07708759439765      -1.56589129435091
H         2.34950184681570       3.28915945951389      -0.57770678335082
H         3.83936037750705       2.53770087171200       0.01327470321812
H         2.64189988241634      -3.01835255016699       0.30037471768532
H         1.18188750920277      -3.96323951647758      -0.02802518834043
H         2.40446164480631      -3.75961454990588      -1.29494450456500
B         1.93959455645759      -0.75866615841254       3.29151894214479
F         0.67000397599516      -1.36668662876119       3.05436461379843
F         1.75037226828367       0.63879580614469       3.12570474002631
F         2.81273310352705      -1.18772799927213       2.26456729483681
F         2.41375926644318      -1.06774946061636       4.53013800627359
