31
C7H16F6NP optimized with ForceField in AMS.
N         0.16418370884982       0.27290012187003      -0.06602766103810
C        -0.43337242624259      -1.04069956198798      -0.42818865305941
C        -0.93169188183107       1.04595183157625       0.59303086866470
C        -1.93994386209234      -0.88041011802245      -0.41473668377197
C        -2.17853277966856       0.17501602989804       0.63183287247082
C         1.30403140182178       0.11140276699861       0.88816503890204
C         0.60513763711587       0.99096621982388      -1.29056088684151
C         2.49742025928455      -0.68565628388958       0.33272400583381
H        -0.17870447998868      -1.82696777511048       0.31951934809728
H        -0.09502652101345      -1.41442050372300      -1.42144082375656
H        -1.17926132063344       1.98633111624625       0.04681240264688
H        -0.67997872884633       1.36331875839173       1.63160163112974
H        -2.45572634297914      -1.83183175679324      -0.16010108226414
H        -2.28958285279727      -0.51778450190455      -1.40543338005251
H        -3.10016064376707       0.75862882610214       0.41632366133052
H        -2.26977233143158      -0.30568919901377       1.63132366558229
H         1.68103149810856       1.11008730770017       1.20601527948658
H         0.95401228871854      -0.40301653381115       1.81267602629984
H         1.33783427981550       0.39482121477572      -1.87524549341733
H        -0.25647051990059       1.19038624509417      -1.96721564079466
H         1.07474800850083       1.96559162416366      -1.03001687746573
H         3.21066985793971      -0.89230094202992       1.15868822437236
H         2.17794865083087      -1.65741804504065      -0.09509136052215
H         3.04139753709060      -0.10001796442345      -0.43619619811046
P        -5.06160449196163       0.47943785904391      -4.23327198657085
F        -4.75393267841884       1.97981056626263      -5.01210368912004
F        -6.29116149427744       0.19840360612115      -5.40039692241858
F        -3.90228291505373      -0.31349344974546      -5.22315331268037
F        -5.32601778153755      -1.04125046844836      -3.47802533083443
F        -3.84727243935902       0.90672617281973      -3.09570533991766
F        -6.24548087397632       1.15999059065597      -3.19033916248039
