30
C8H13F3N2O3S optimized with ADF in AMS.
N         1.61190413307529       0.60187808445154      -0.51519924035854
N        -0.42728490867093      -0.06927142086099      -0.81599386880124
C         0.80027124396746      -0.06094679125445      -1.34923342427900
C         3.07292895230135       0.68450177751535      -0.66134076582616
C        -1.56740765079303      -0.81072175351897      -1.38023842453629
C         0.89011533805560       0.99610932165444       0.59483787444859
C        -0.39341007307428       0.57563998729542       0.40454705029439
C         3.76981472277916      -0.34082533387687       0.21939516918606
C        -1.92012908854024      -2.00639051094843      -0.51183882810908
H         1.06287026436915      -0.58251708626523      -2.27136905467690
H         3.28859042743823       0.50166094554292      -1.72296444795891
H         3.36644714856738       1.71963770419756      -0.42410362661671
H        -2.40370783076173      -0.10170498001840      -1.48868582536438
H        -1.24288610820992      -1.14811637195568      -2.37492832933098
H         1.34585725348249       1.54266140233800       1.41107307576151
H        -1.27528393424335       0.68631366313828       1.02291999721249
H         3.60699775382203      -0.12857243992918       1.28691720393440
H         4.85088572583307      -0.31290374513185       0.01960032456445
H         3.38630165207531      -1.34663743690496      -0.00413187396377
H        -1.03251703369125      -2.64171778697478      -0.37894312679177
H        -2.70342057529949      -2.59336332049761      -1.01342893075755
H        -2.29677586961781      -1.70025522083774       0.47594446384928
S         1.49615942874676      -3.21701049212060      -2.07179949972875
O         1.58451075124956      -2.56929382378981      -0.74005317308552
O         0.70622062222831      -2.42252463939181      -3.04880157824009
O         1.27936919178368      -4.65917375718627      -2.07727572553358
C         3.24175398108615      -3.00350383887682      -2.74200754897758
F         4.17700226046204      -3.45709139175793      -1.86700421315991
F         3.51437370911554      -1.66959784432247      -2.96490892074425
F         3.40998274106347      -3.64990205821267      -3.91796380081024
