68
C18H36F6N2O4S2 optimized with DFTB in AMS.
N        -0.71736877826976       0.75292061633809       0.18271937996212
C         0.44140693447732       0.42941388045578       1.09070184152508
C        -1.89949558920822       1.14190411682782       1.03762666556557
C        -1.02468686382762      -0.44650953245165      -0.66793223157793
C        -0.39704019927106       1.91016649324670      -0.73243833338091
C         0.95495101920486       1.60114783134797       1.92437815367810
C        -3.22390988474622       1.29851835272336       0.29162081753880
C        -1.45044083231084      -1.69975185396330       0.09473281593848
C         0.90810623308797       1.80414389664599      -1.51400931654551
C         2.17396577822582       1.15860025282189       2.74118968550928
C        -4.18702747208591       2.13025363824859       1.15081942034837
C        -1.81753068778785      -2.80065267888862      -0.90889064634591
C         1.09141293295842       3.10002447156688      -2.31701896312635
C         2.68677470245137       2.31622009126517       3.59593343990480
C        -5.48630842125056       2.40866146226717       0.40065851741424
C        -2.24931987772779      -4.07660302966274      -0.18971763068387
C         2.39602835236249       3.07780089479657      -3.10875901519118
H         1.23973990374040       0.02843598239067       0.46094022133119
H         0.10447012985249      -0.36535018497070       1.76024709548921
H        -1.63576244042716       2.08711672561052       1.51025633257562
H        -1.99555663877137       0.38825957696700       1.82241029026994
H        -0.12516498025276      -0.66412401468054      -1.24856959461573
H        -1.81576674273189      -0.15029177175654      -1.36065543482192
H        -0.38160187962445       2.80953094741048      -0.11619875627952
H        -1.22817188851511       1.99495001953314      -1.43419277200329
H         0.17854079368849       1.94688014830314       2.60831146095325
H         1.23856563958650       2.44063269612005       1.28808161515641
H        -3.66526305795960       0.31943207491535       0.08127983578481
H        -3.07518221976639       1.81130794821176      -0.65987765777642
H        -2.31536122701651      -1.49191895046851       0.72863163334327
H        -0.63815790225577      -2.05547541620286       0.73368107396794
H         0.88981133933488       0.94891166055719      -2.19665146560093
H         1.76088306781062       1.68339603048757      -0.84181428161246
H         2.96672967546086       0.81778951321787       2.06599776839472
H         1.89788232885664       0.31780660277576       3.38685965296642
H        -3.71015707780725       3.08182428133564       1.40565596171845
H        -4.39942132256628       1.59702773737231       2.08293635622631
H        -0.95372724072379      -3.01343096680415      -1.54721902373911
H        -2.63154319532218      -2.44909608804604      -1.55115886835276
H         1.09372808370603       3.95009189091442      -1.62854568459248
H         0.24707208791967       3.22603856767996      -3.00192366089869
H         1.90797238124705       2.65919533040164       4.27723698548579
H         2.98586051476643       3.15216245412463       2.96318226711931
H         3.54797732335248       1.99435142450339       4.18110867737542
H        -5.98464979572534       1.47699036713575       0.12738669937606
H        -5.28464548844203       2.97574344543848      -0.50860094378631
H        -6.15651901736143       2.99152808035931       1.03153880947488
H        -3.12232102230474      -3.88605021124979       0.43532466144829
H        -1.44333721802279      -4.45110264714066       0.44226695391927
H        -2.50460581257032      -4.84404877051981      -0.91985604833588
H         2.40612578977216       2.24389550442705      -3.81231797059954
H         3.24952645611524       2.97710099273450      -2.43708500521633
H         2.50222757661125       4.00660821465062      -3.66842137593617
N        -2.59134196583697       5.09313040383226       1.65894932537110
S        -2.65281420207053       6.21564790584541       0.50233322930897
S        -1.13772372492944       4.67692581249813       2.16268940715125
C        -2.23759911194242       5.31636468838596      -1.09813774842509
C        -0.38300836210560       6.04403674797375       3.21327688432015
O        -4.03450331924804       6.56378914655443       0.33428992906144
O        -1.66781896830077       7.25796197072310       0.61325947526608
O        -0.15366372174397       4.44494905405462       1.11104823569258
O        -1.33189523342626       3.58286632908514       3.09629502092338
F        -2.96981152958425       5.78701604095471      -2.09180067792386
F        -2.52089666077424       4.00972613102707      -0.96354085983042
F        -0.96064566005050       5.41824213283107      -1.42756804936881
F         0.29771018819922       5.47172400433396       4.19802401359577
F        -1.32864434220945       6.80370152566143       3.73157300651629
F         0.44293972178677       6.78174192521454       2.50209784379891
