48
C14H28F3NO2 optimized with ADF in AMS.
N         0.39441018919103       0.04805600789139      -0.19391301922466
C        -0.24708334608541       0.57906744997149       1.08981235544822
C        -0.60550327523257      -0.70901443691047      -1.04023217735296
C         1.52667751916820      -0.90247679961692       0.19621596603523
C         0.92343029623477       1.22965916975546      -0.98572293414926
C        -1.04620100405472      -0.43667021771437       1.88756791393748
C        -1.84865967184500       0.06345338669669      -1.45414983977493
C         2.44180035052592      -1.34652183583317      -0.93114732444490
C         2.04514557798499       2.01040651357822      -0.32336942008044
C        -1.43524323848875       0.19581606788389       3.22570596246238
C        -2.83317443148734      -0.87773919031063      -2.14965931808112
C         3.55685805866466      -2.21641455068157      -0.34300865676214
C         2.45532335772040       3.17360615779298      -1.22647929622043
H        -0.87302612441146       1.43341443056393       0.79141018182251
H         0.59266284401215       0.91523399726841       1.71996600617501
H        -0.88752052189511      -1.59416638660030      -0.45153045408674
H        -0.05964296072570      -1.05784264417658      -1.92894002209760
H         1.03246965240642      -1.77520867196196       0.64645282056933
H         2.06996074884569      -0.40841756265302       1.02125806191701
H         0.05935559327452       1.88719362671731      -1.16057223003023
H         1.24431726487086       0.83328501197574      -1.96191735833728
H        -1.94862347781757      -0.76539089596433       1.34352291289385
H        -0.41987264745086      -1.31632276838425       2.10247842366440
H        -2.33363917095342       0.50954987066298      -0.57154672863754
H        -1.58549689682486       0.88712583337728      -2.13657183726127
H         1.89356070077797      -1.92001893223930      -1.69857293623134
H         2.90036975627208      -0.47970298215151      -1.43365491830410
H         1.73081073270795       2.39307412439013       0.65835826634323
H         2.91470061292068       1.36668558628803      -0.13079565038533
H        -2.07772205183754      -0.48504801370870       3.80229005721846
H        -0.52185052341698       0.39541416788668       3.80664565730763
H        -1.98486361922249       1.14008742714292       3.08035298073315
H        -3.73415576208237      -0.33330155207416      -2.46586752066669
H        -2.38465257408248      -1.33682385502094      -3.04472513160573
H        -3.14853856280568      -1.68882387136669      -1.47478212122479
H         4.22658945635507      -2.57553221371952      -1.13785091967542
H         4.15256618165338      -1.64396044872993       0.38381622442903
H         3.14532710193684      -3.09338584085358       0.17967810614032
H         3.26374677370911       3.75110845567847      -0.75630613488601
H         2.81930421325836       2.81695392700366      -2.20377263918377
H         1.61250868818631       3.85963017740629      -1.40851849919296
C         2.94693900621930       0.19889995085404       3.66066878972511
O         3.35667621057785      -0.36511353334919       4.68011867022326
O         1.89396234742001       0.03815988988599       2.96815559904065
C         3.87611982285569       1.31215530575809       3.05840737823226
F         4.37222245123573       0.92330097672456       1.81571182948716
F         4.95514575113068       1.62229376932070       3.81614370895112
F         3.19805819560369       2.49451113054576       2.83426551704083
