45
C11H24F2N2O4S2 optimized with ADF in AMS.
N        -0.43085798433165      -0.01996543158965      -0.46360418321282
C        -1.43964797656540       0.63710166123257      -1.39707794786799
C        -0.65232128532505      -1.52770090183751      -0.50912322827920
C         0.95043316101019       0.30309380121357      -1.00993443234997
C        -0.57660847216886       0.45908533694488       0.96492313537855
C        -2.87543534968114       0.29393115762791      -1.04598005571082
C        -2.08182065153285      -1.93219512007420      -0.18431365854607
C        -3.09336472091005      -1.21888724760467      -1.08085328918155
C         2.12634384417375      -0.21202109927736      -0.20067487320123
C        -0.38302034527496       1.94875241328452       1.16867127078164
C         3.41183405106196      -0.04797329134913      -1.01974759863099
C         4.64204422685509      -0.53041289065531      -0.25839220019768
H        -1.19367850560764       0.26603657491612      -2.40401555618092
H        -1.23842089336437       1.71681122481333      -1.37177803280172
H         0.06202692634241      -1.97554826027701       0.19350587166194
H        -0.38844604250169      -1.84135213387026      -1.52839450706164
H         0.99239055842534       1.39740806492605      -1.11740451063760
H         0.97249815759532      -0.11685741580523      -2.02315163241107
H        -1.57508535677979       0.15362861227393       1.29798163263956
H         0.15726514163988      -0.11793300983046       1.54649862894787
H        -3.51255689456958       0.78963453857707      -1.79700299512003
H        -3.16008113865293       0.71968557138531      -0.06710927641483
H        -2.30764559565854      -1.76193280753182       0.88289669208022
H        -2.13429655381560      -3.02093501986488      -0.34740924924871
H        -4.11939988631883      -1.46983051735476      -0.76937068792575
H        -2.97391514812181      -1.57716884263943      -2.11583875837545
H         2.00383432767088      -1.28259366827607       0.03124102092440
H         2.22729594244717       0.32917497252054       0.75691551646154
H        -0.50107265674075       2.16283740690036       2.24149725436447
H         0.61919341029472       2.28886966807571       0.87399068553512
H        -1.13450902194163       2.54525306144506       0.63325721776671
H         3.53453147907099       1.01304268739264      -1.30160152928013
H         3.29963870200482      -0.61540564301542      -1.95975176132460
H         4.54069806878001      -1.59269403903637       0.01502342647631
H         4.79216437870843       0.04661802502173       0.66861348038931
H         5.55067939503465      -0.42870904129466      -0.87015466953103
N        -1.10103992431167      -1.76083541229190      -4.07769157860667
S        -1.53471258503194      -3.31762195101932      -4.10709018292046
S         0.41370820097767      -1.31589533609129      -4.35997970146937
F        -0.90258258723067      -3.88378312310546      -2.65546373093681
F         0.67508949015805      -1.65818309965428      -5.93620127188731
O        -2.96509418348226      -3.35852948087277      -3.87361988542649
O        -0.89652488748323      -4.14108062255281      -5.10963791593251
O         1.43355878301857      -2.06665005740061      -3.63901929184411
O         0.43853951203299       0.13905731692132      -4.27962531399209
