23
C7H9F3N2O2 optimized with ADF in AMS.
N         0.88231066961424       0.74679654528805       0.03061656888633
N        -1.21538108374670       0.23435064982344       0.29498877369653
C        -0.07885161454048      -0.11407808856412      -0.32848972799935
C         0.32391719206906       1.72305338433334       0.83459050842909
C        -0.98851675601824       1.40392319061647       1.00058270479168
C         2.17895855936684       0.83937033623003      -0.63019465065784
C        -2.52059322420014      -0.32482218369685      -0.03844427458192
H         0.04910684515517      -0.96508517524930      -0.98081383369579
H         0.90201779670963       2.56477898920188       1.19230380786652
H        -1.77813368288918       1.90471276072105       1.54582171264394
H         2.48625866039743      -0.16273602353823      -0.95117113850745
H         2.03030654571134       1.50456489834407      -1.49976516775543
H         2.91466407726867       1.24111630971700       0.07661935805979
H        -3.23578473128779      -0.04202226981537       0.74216357198079
H        -2.82047680290546       0.07714401259669      -1.01664096704147
H        -2.44541933861831      -1.41793682385493      -0.08294343907865
C        -0.69231328518600       1.86892363875857      -2.55290738741413
O         0.28032620824532       2.57789693096336      -2.22458471255786
O        -0.84802476656871       0.61383054788945      -2.55095412404202
C        -1.98394360686897       2.62621093211451      -3.01898435516205
F        -1.85764598407165       3.97917927684349      -3.04063868225035
F        -3.03732638594546       2.34674355449896      -2.15913495103741
F        -2.38662703169060       2.23665604767845      -4.26546018167294
