40
C12H22F3NO2 optimized with DFTB in AMS.
N         0.36165021750217       0.04870087161221      -0.05632736143201
C        -0.57727726135688       0.62826393811108      -1.06906897328725
C        -0.33431655659646      -1.06263297644958       0.67005454706376
C         1.54005913896121      -0.51690851612952      -0.82554544971389
C        -1.87600963781912       1.12644435669226      -0.44888844817842
C        -1.67359949517527      -0.65780218944827       1.27967883291126
C         0.84199486277036       1.08155110992243       0.93702332573147
C        -2.59935392361210      -0.02769854304203       0.24148113603494
C         2.41019013525150      -1.51507980524015      -0.06484378489174
C         1.22118163636377       2.42484032553803       0.33585571513984
C         3.61618131962966      -1.86601727545703      -0.93807309613646
H        -0.80091397137146      -0.16473263816956      -1.78842533154441
H        -0.05065578374743       1.42935344606906      -1.58907021799394
H         0.33733254986781      -1.40797239962669       1.45734221568238
H        -0.48487315072306      -1.86931959084760      -0.05284295443308
H         2.15611419138368       0.33482775724768      -1.12534434648925
H         1.13291599805454      -0.99721984730956      -1.71963737475488
H        -2.49620813569991       1.53083158592958      -1.25288415315142
H        -1.68384033436534       1.93147232775673       0.26411496120730
H        -1.52342401833251       0.03500843612108       2.11155296991141
H        -2.13061866074269      -1.56420352616688       1.68554268284647
H         0.05378323604506       1.22188576974243       1.67800462490820
H         1.71934873868982       0.65180253812370       1.43002249571111
H        -3.50597215724555       0.33730585358295       0.72937900397480
H        -2.88918573123345      -0.77752720959329      -0.50180414951065
H         2.76334972968141      -1.07887724912737       0.87212846975962
H         1.85427113594329      -2.43092430035186       0.15873263185329
H         1.72571578043729       2.98875347622143       1.12041444114194
H         1.92008473677535       2.31421033449539      -0.49064588330835
H         0.35081573417768       2.99308151917595       0.00893009566191
H         4.24988592570128      -2.57843604801832      -0.41151871807005
H         3.29321967945567      -2.31197510776398      -1.88026948977742
H         4.19738920449743      -0.97002311198437      -1.15318796018159
C         4.32771182785839       1.22590096493736       0.65914850844902
O         3.74860878321578       0.77961036489779       1.65210244979657
O         3.95310642687094       1.32320614305627      -0.51282338371671
C         5.80872231914845       1.76749528396477       0.94691429747482
F         6.60351241132265       0.79737064850103       1.43600206217570
F         5.80122462638903       2.76195302947223       1.85518617800540
F         6.41000219722699       2.24810795865462      -0.15122416026971
