28
C10H15NO2 optimized with ADF in AMS.
N        -0.28745071892022       0.00775017904083      -0.15973602444134
C         1.17825263983742      -0.03713692933065      -0.33774650443188
C         1.89124953361980      -0.02022600991804       1.01081768451183
C         3.40208174498856      -0.08619265258561       0.80090489574178
C        -0.95470551039003       1.18417312410678      -0.25837185394987
C        -0.92338999009290      -1.15121868465005       0.13859876388907
C        -2.31740034612292       1.23835841320551      -0.05117724028043
C        -2.29789636919075      -1.12790252832654       0.34055951917532
C        -3.00745195012209       0.06369566991124       0.26013591349063
H         1.42194850142176      -1.00849533491089      -0.84604187860934
H         1.46116872444096       0.82481733592674      -0.96172886197727
H         1.55584236076925      -0.90157057600235       1.58424146089474
H         1.60708337766306       0.88181600085973       1.58369368731254
H         3.65863270892860      -0.98701593716089       0.22232751186818
H         3.92788672690516      -0.12578586329938       1.76564844409529
H         3.76713095038901       0.79745282808176       0.25263095136572
H        -0.35347216534875       2.05904970098127      -0.50047778537832
H        -0.30338159359127      -2.12007561094824       0.16190995578590
H        -2.83153132690994       2.19609909475118      -0.13052584303615
H        -2.79292979766824      -2.07543049476111       0.56022908125949
H        -4.08500230287341       0.08781060059369       0.43234606255006
C         2.24181638232065      -4.97297624379479      -0.30487756030911
C         1.49792365088427      -3.64072145741246      -0.41160646589489
O         0.38691010188014      -3.56839530823907       0.21062113363297
O         2.05451185088376      -2.72216926974922      -1.08332557829697
H         1.54829340419849      -5.78797258146385      -0.05784183705861
H         2.78220555007171      -5.19242984503282      -1.23581073736911
H         2.98493706842789      -4.89606650887280       0.50458830045977
