29
C7H13F6N2P optimized with DFTB in AMS.
N         0.43649362786257      -0.43830725064167      -0.64341626351892
N        -1.52049629597497       0.45275376384550      -0.63400618489231
C         1.86873956451316      -0.59777075085554      -0.87898184380051
C         2.68399350328714      -0.19641701900786       0.35221773482639
C        -0.22915904474797       0.69491618036703      -0.83655832544430
C        -0.44617890259804      -1.42557898462278      -0.29916808518384
C        -1.68435820494210      -0.86398411634581      -0.29414190470786
C         2.56498561483667       1.29246463154677       0.66984032662577
C        -2.57610028605158       1.43243824017001      -0.83733912846485
H         2.12483875408860       0.02945859064620      -1.73709921541010
H         2.04654265338713      -1.64590913883322      -1.13016961765363
H         2.36318008188876      -0.79208886242569       1.21288983670855
H         3.72845610395279      -0.44151243207375       0.14078755486722
H         0.19430762468546       1.63457497462789      -1.14254719093128
H        -0.12978031749978      -2.43476295291589      -0.10144694304363
H        -2.65157481433682      -1.28792366930069      -0.08841195012825
H         1.54995591356434       1.53966977196003       0.98333369937309
H         2.81489009135728       1.88896375579062      -0.20754918286912
H         3.24750071294876       1.55193680832316       1.47854279488332
H        -2.23565961412876       2.15098768705814      -1.58317024515229
H        -3.47001526112429       0.92148969641661      -1.19089890843914
H        -2.78972467974984       1.94271477478202       0.10294792838772
P         0.77268051476614       2.11697754580600      -3.76126321155045
F        -0.51599679741133       2.67180937251513      -2.82670521522744
F         1.18102451231934       3.64841919874054      -4.10758546486669
F         1.72868335149463       2.17859575930242      -2.36985079636025
F         2.03867445088755       1.52392786249961      -4.59423921706425
F         0.34320665515132       0.55556531578682      -3.31102041539527
F        -0.20785826602620       2.01607723883839      -5.05291301246770
