39
C11H21BF4N2 optimized with ADF in AMS.
N        -1.19065403549992       1.12458523447990      -0.29848668093158
N        -2.55309688638292      -0.50516197242318       0.14303201843314
C         1.17771525052746       1.83625164716557      -0.38209650149280
C         1.72053104974988       0.41165418206493      -0.40920061207488
C        -0.20606464201228       1.95333975821567      -1.01743438889250
C         3.09606351965293       0.27788247680714       0.23445986714041
C         3.63068782204082      -1.15130572570902       0.14802341694621
C        -1.85079318772006       0.08860191260170      -0.83064055519674
C        -1.46875440485623       1.19022158819953       1.05281472377252
C        -2.32464280034514       0.16292863480751       1.32850155173448
C        -3.28267315555165      -1.77845098104384      -0.01376555480159
C         4.99998647004746      -1.31396856970497       0.80147316039872
C        -4.37179227618545      -1.69118340108012      -1.06804185469924
H         1.84686412864302       2.51449071557226      -0.94203625271261
H         1.14854848341221       2.22243056170596       0.65420628530570
H         1.75579888526792       0.06008647352949      -1.45351734702016
H         1.01549399493317      -0.27266884957107       0.09285586806271
H        -0.57723766773098       2.99036107642862      -1.01928284206430
H        -0.18669390713576       1.56962629727898      -2.04828619750519
H         3.04667558987983       0.58882189639119       1.29644397956253
H         3.80907683280018       0.96529335025213      -0.26005954322888
H         3.68077453389936      -1.45048693378267      -0.91416494614545
H         2.90168508134001      -1.83652869992119       0.61685789451448
H        -1.76465371276419      -0.25565485600840      -1.85681408849571
H        -1.03443638503253       1.94595127202097       1.69515066174558
H        -2.78246790143280      -0.14943287879610       2.25877665685729
H        -2.52370115852330      -2.52971295510370      -0.28308004402362
H        -3.69377461941556      -2.01168060407264       0.97927472873682
H         4.96067850897034      -1.05270814443939       1.87223652632891
H         5.74527924319024      -0.65574677600275       0.32485664876049
H         5.36556360552706      -2.34867196380470       0.72045751196652
H        -5.08479424182591      -0.88457878224228      -0.84182044055777
H        -4.91649950193620      -2.64587440606159      -1.09462575260066
H        -3.92901264041824      -1.54057322294848      -2.06210845032460
B        -0.30851198412815      -2.11388319762162      -2.37935381808888
F         0.49394294357572      -3.09054677371737      -2.95524863300361
F        -0.20629096780800      -2.13922487929474      -0.94693793680609
F        -1.69704083979422      -2.28711818473565      -2.71054088051180
F         0.06419970234188      -0.79696309193609      -2.83840001358784
