34
C12H19NO2 optimized with DFTB in AMS.
N         1.66116506696357       0.33671017402069      -0.78022090409956
C        -0.63459642386927       0.05773689789263       0.04136132816701
C        -2.11530391562409       0.25322809858923      -0.29392743008669
C         0.25469503603632       0.52983929820818      -1.11605593137121
C        -3.01302207726989      -0.22059300997891       0.85346251555046
C        -4.49159577483440      -0.02852332477215       0.51994298431822
C         2.27426220984290      -0.91292286039721      -1.13175646733294
C         2.37751674034288       1.33827359690520      -0.19684292155225
C         3.48677156918712      -1.19415248578628      -0.30880841624238
C         3.60973880492188       1.12842911751431       0.32268777255557
C         4.13960328662588      -0.20293314570446       0.31925770415382
H        -0.43701315190655      -1.00069386844834       0.23816385589446
H        -0.37741726719822       0.62019386206877       0.94480408432105
H        -2.35849684150554      -0.30697215448900      -1.20312136766928
H        -2.30685667217487       1.31337612050948      -0.49401878557681
H         0.02552815890792      -0.03356437961672      -2.02358329355210
H         0.08446664684473       1.59347586120184      -1.31233550649411
H        -2.76886879574573       0.34006230047796       1.76229786556424
H        -2.81962781346099      -1.28008157735979       1.05245461518559
H        -4.70888578654911       1.02498783688531       0.33778114654444
H        -5.11016249534725      -0.37235841455349       1.34932640560351
H        -4.75898997235284      -0.59685447019118      -0.37197673398816
H         1.53058306977679      -1.72130074046737      -1.09095362003072
H         1.87700128737606       2.29923634761788      -0.13667025935128
H         3.83536571605675      -2.21890153257355      -0.30840774102460
H         4.15747234236540       1.93513893962397       0.78907699197894
H         5.04859373129401      -0.40305225910941       0.87587841958974
C         2.55438847794002      -1.24375684677791      -4.85838378837952
C         1.91573202799880      -1.33682420464633      -3.49122897372979
O         0.82900167681939      -1.81585524208716      -3.28793353605133
O         2.71085318508055      -0.83768029810460      -2.55594218511913
H         3.37270802030307      -1.96110863360445      -4.90767007063566
H         1.81942631752069      -1.47528134938124      -5.62495456069940
H         2.96109597383404      -0.24595861656588      -5.00886413734018
