59
C17H21F18N2P optimized with ADF in AMS.
N         0.07153331693753       0.32293372726230      -1.46932258987203
N        -0.52378505712578      -1.10479586073681      -2.99055824244603
C         0.82045035027672       0.39383674703793       0.89033320067844
C         1.61143308405034      -0.91356985821584       0.96939562702881
C         0.87344282150550       1.06255399099477      -0.48212132618391
C         3.12335637448237      -0.71122235498131       0.86643867914179
C         3.92075110197259      -1.99918061718505       1.06216717234034
C         0.53130262139023      -0.58455982479962      -2.34422540686297
C        -1.30381785067615       0.38397342910435      -1.56168859316588
C        -1.67654721680072      -0.50779392680497      -2.52436862713615
C        -0.47239122932441      -2.09539482544838      -4.08378084496746
C         5.42588850003338      -1.76260028591208       0.96959778176085
C        -0.39897053255512      -1.42162505770093      -5.44258668961221
H         1.23158851000170       1.11645311409590       1.61786565991479
H        -0.23657598551030       0.23259047442948       1.16956699429358
H         1.27244439086370      -1.61392526957084       0.18300854942298
H         1.37480832704422      -1.40485998991014       1.92989925351295
H         0.46835647868345       2.08561851589855      -0.45586054794741
H         1.89734019912424       1.11426355551894      -0.87154836077455
H         3.43859111933686       0.03253445179686       1.62447021109493
H         3.39151436298829      -0.29248998740466      -0.11883096912730
H         3.61523152050829      -2.72973912807208       0.29504665218805
H         3.66592927238766      -2.44127709550607       2.04340574195605
H         1.57470994292439      -0.83971526500454      -2.51340552596280
H        -1.88805151159876       1.05501691988475      -0.94434699915639
H        -2.65146090129244      -0.76201982132265      -2.92126333190227
H         0.40535143710623      -2.72653448010878      -3.90256548965428
H        -1.37469753363288      -2.71603085139361      -3.97425466746484
H         5.76876977851086      -1.07998159810383       1.76434480912076
H         5.68797653267408      -1.31688235732258      -0.00199393139135
H         5.98729257235890      -2.70427490138132       1.06611677906460
H        -1.27957393286136      -0.78736081857047      -5.62464348354472
H        -0.35795207993921      -2.19627617534192      -6.22267388696275
H         0.51467068986592      -0.81706607581105      -5.51973273355900
P         4.09849401982566      -1.51302058017657      -4.06137291637776
F         3.64782078313828      -0.88442137389785      -2.53587855950922
F         2.45016316157526      -1.82314061137987      -4.33403420018939
F         5.70245322645583      -1.20774058557341      -3.79544749412457
C         3.89308106268337       0.34793212030622      -4.73777043038101
C         4.31337909834355      -3.23058186604869      -3.07834243819266
C         4.39170319049903      -2.27884151754281      -5.88005526729678
C         3.98602195700318       1.52924028740600      -3.71184661989058
C         3.04298396643427      -4.00801032547392      -2.61942146255721
C         5.82580952242611      -2.45686874472786      -6.47195384380290
F         2.66979135755082       0.55280828369017      -5.35872250823095
F         4.86930538318468       0.61883802724735      -5.66165195383318
F         5.00466704677905      -2.96822277016449      -1.91501106389268
F         5.06457031563255      -4.15402834340814      -3.76165685142423
F         3.70809296737846      -1.50665383802015      -6.79862766156121
F         3.80696385152963      -3.52669301767387      -5.93282572179347
F         4.10365771282970       2.70307609485655      -4.38864561713709
F         5.03359170187616       1.42906270806327      -2.87272664094337
F         2.83953734012881       1.63022848119927      -2.96539794792989
F         3.40191759100726      -5.06181801114597      -1.84141001244391
F         2.20631923992612      -3.22774912571500      -1.86950022271521
F         2.32884356681229      -4.49337517893461      -3.66290681182298
F         5.72177393390911      -3.04211047701536      -7.70063756592665
F         6.59914104241764      -3.25113873033493      -5.70078962128852
F         6.45639982664285      -1.27395166324963      -6.63395659745922
