33
C9H14F2N2O4S2 optimized with ADF in AMS.
N         0.93595621248223      -0.57920946923376       0.73725705380541
C        -1.34131557722353      -0.22237584155244      -0.19670449640417
C        -0.51560899731333      -0.54388653754487       1.04142884816868
C        -2.83678906959238      -0.21999497868233       0.12027493005485
C        -3.68383469521216       0.09045187247018      -1.11118020002292
C         1.73000979475166       0.44236015264481       1.11701056933788
C         1.44867740124259      -1.68006780475366       0.14492394135301
C         3.09516602405241       0.37707639423185       0.91353728627179
C         2.80497791751930      -1.79014491574111      -0.07749245838025
C         3.64365533103823      -0.75334611320818       0.31947138851442
H        -1.13257694923079      -0.96898659033912      -0.98411659015327
H        -1.03652526448456       0.76108099721210      -0.59821759341682
H        -0.76530179272923      -1.52585235339526       1.47100543280525
H        -0.65444881552693       0.20196221431771       1.83629934279378
H        -3.12021277860708      -1.20364520702100       0.53433205648648
H        -3.04097538863714       0.52135245935533       0.91291279420953
H        -4.75657684821245       0.09046417255888      -0.86638134404855
H        -3.43266271217380       1.07974417517730      -1.52552834802392
H        -3.51958651008104      -0.65839255737779      -1.90206850916452
H         1.24421622224350       1.26897001445025       1.62835005033457
H         0.74539715695269      -2.47939404476597      -0.07578148882174
H         3.71897638614462       1.20013236936857       1.25987461438120
H         3.19568357736942      -2.71129121093131      -0.50652142870761
H         4.72299541193201      -0.83899576778332       0.18862025484330
N         1.93926628077400      -1.98480243770299       3.16643998871868
S         1.74597897413289      -3.57022647955151       2.99275412179741
S         1.01315924502417      -1.14999484502746       4.18530334699660
F         0.30680846821536      -3.65086938198760       2.09489352902930
F         1.60055647577757      -1.52897569818880       5.66527683882140
O         2.73508850857154      -4.01736525232129       2.02705712417629
O         1.44718344669563      -4.33172693849111       4.18469129015185
O        -0.38787069400455      -1.53001923787814       4.22872098979008
O         1.36566991130917       0.25272335279202       3.99784821460200
