51
C13H28F2N2O4S2 optimized with ForceField in AMS.
N        -0.69301811053923       0.53754835839236      -0.20081568509193
C        -1.66199453244387       0.27993111468643      -1.31526565440997
C        -1.25574387945712       1.61212427431952       0.68162639936423
C         0.56645211135202       1.05074123186550      -0.84304170543527
C        -0.43630255423908      -0.69901818081449       0.61843450339522
C        -3.07754938266693      -0.08770585981365      -0.84279797411452
C        -2.67975282195035       1.31716629671989       1.20139743314937
C        -3.64102969440231       1.00870402559925       0.05589946486617
C         1.76449589515979       1.29417419168323       0.10906032768574
C         0.22962165090300      -1.87828407611350      -0.13210921612445
C         2.96813631945372       1.83861060792337      -0.67250554090645
C         0.43927717759190      -3.06704675595985       0.81509648025753
C         4.17576304085160       2.04744427132027       0.23747639831442
C         1.10047289655260      -4.23945614618929       0.09576776923129
H        -1.29727326816263      -0.51177065709269      -2.00202080113547
H        -1.76243785808300       1.19052610732501      -1.95206955017867
H        -1.29636308647005       2.58377448072226       0.13707727253672
H        -0.61225542351104       1.77374045980004       1.57329791729070
H         0.35858176593397       2.01304960052305      -1.36715480569664
H         0.90086061872125       0.35715485936589      -1.64707671454441
H        -1.37658326143040      -1.08832756668826       1.05454622940052
H         0.18855815699748      -0.44872568800327       1.50388186979736
H        -3.09008681046061      -1.06686851787418      -0.32190813069163
H        -3.73069213122663      -0.19520015345885      -1.73317994847174
H        -3.05382801412119       2.20819027307279       1.75044130178373
H        -2.67156954829616       0.47860703648323       1.92846834256583
H        -3.81223794379746       1.93024917359040      -0.54361344098929
H        -4.62001546660938       0.68213227074531       0.46935494806053
H         2.07489434285675       0.34731697555375       0.59649965078467
H         1.49495935860961       2.03059269849974       0.89361068276064
H         1.21779891176212      -1.57966686330830      -0.53769463453130
H        -0.41443923231425      -2.21832989602408      -0.96804419603367
H         2.70184910397401       2.81011856270665      -1.14373019206185
H         3.24844480910853       1.12343161447631      -1.47695843546851
H        -0.54158020681932      -3.40269540968143       1.21814892790602
H         1.08320075885358      -2.76001768412208       1.66828303903899
H         4.48369324115102       1.08401422306339       0.69743731484801
H         3.93397111839550       2.77759338236388       1.03905988831475
H         5.02557960703592       2.44252322378612      -0.35871723836510
H         2.09830481784330      -3.94096623924808      -0.29089529360499
H         0.46535577435240      -4.58101675659739      -0.74948437981999
H         1.23183456988617      -5.08384575519307       0.80501364718706
N        -7.82016523806097       2.30536452727722      -3.41671210623127
S        -6.27373939572014       1.83888945937185      -3.67545759995284
S        -9.02255461749344       1.20564169132685      -3.26744511349668
F        -6.09957481032002       1.36897466048356      -5.27282800210014
F        -8.89999825034399       0.45131488481410      -1.77769178390631
O        -5.34559123462699       2.98509034438644      -3.38929821948650
O        -5.93631003088203       0.67633018631039      -2.78589962107699
O        -8.90632345776734       0.16869054975548      -4.34951258186763
O       -10.35232698473030       1.89717897006897      -3.36804552494528
