38
C10H20F3NO3S optimized with DFTB in AMS.
N         0.15091316076470       0.33433931995222       0.46867918679884
C        -0.94796515704648       1.01230961808499      -0.29575899111455
C        -0.19192357382461      -1.12013575482924       0.63115353241881
C         1.40354395041215       0.46462444760762      -0.35752555757037
C        -2.31862279684466       0.83533635709536       0.35008902085366
C        -1.54291022685750      -1.33672223768888       1.29584211143585
C        -2.65510357656951      -0.64701907291810       0.51260207481166
C         0.35394415838426       1.01153257792540       1.77955990131740
C         2.65879704962404      -0.15863219825453       0.25369828451996
C         3.82123313307705      -0.01002979674699      -0.72603063466612
H        -0.95420536938574       0.57850219650474      -1.30004564002979
H        -0.68999022820127       2.07168225530354      -0.37115010522197
H         0.59211517223790      -1.58328410987922       1.22743093911338
H        -0.18663221271698      -1.55513487445945      -0.37287927631955
H         1.56073767271318       1.53529266097485      -0.52038441439412
H         1.19250222110803      -0.00339245039471      -1.32370646380152
H        -3.05078269728739       1.32075190464107      -0.30092628878146
H        -2.35171902668650       1.33703949897034       1.32035500737119
H        -1.52152905461869      -0.97678497029974       2.32614834863527
H        -1.71068499654430      -2.41556242486649       1.33289640211782
H        -3.60432728101706      -0.75002573771924       1.04293513091255
H        -2.76285545143302      -1.10851638869306      -0.47487079445697
H         1.16318024663321       0.51970459783733       2.31171950383929
H         0.59759264232375       2.05678351107727       1.59592799547285
H        -0.54834612274730       0.93478625284305       2.37773360210573
H         2.91438516872433       0.33365606748949       1.19346150596287
H         2.49907126736815      -1.21662238115468       0.46789693678668
H         3.60416636662559      -0.52216002612483      -1.66443033609034
H         4.01571095756113       1.04206867250090      -0.93898962543385
H         4.71814167929865      -0.44815656837223      -0.29043418351808
S         0.92670724298099      -1.80827542481695       3.68854606534523
O         0.31487308890064      -2.97081923866903       3.07294606205480
O        -0.01613613394173      -0.76340548196181       4.06644209611551
O         2.09154547610210      -1.29896629668165       2.96528535591073
C         1.61877497569351      -2.41367891791368       5.29110829475335
F         2.52153805039779      -3.36352989720888       5.08054965750872
F         0.65737151775246      -2.91056396651753       6.05853801398251
F         2.20484120403912      -1.41726095143723       5.94550333895403
