38
C12H19F3N2O2 optimized with ADF in AMS.
N         0.73498998979138      -1.69683446957027      -0.02125391407038
N        -0.77790259721206      -0.45917591173539       0.90098243037257
C         2.05174793096050      -2.29214465899364      -0.29995575403477
C         3.09191288684512      -1.21946942132572      -0.60746113969039
C        -1.41005671638372       0.47170625977241       1.84668197817159
C         0.45821819317781      -0.95411759720107       1.06337969637623
C         2.70127734878729      -0.28746103341136      -1.75130458191517
C        -0.33666503191127      -1.65748268880755      -0.89275354951495
C        -1.29498415854134      -0.88152663633294      -0.30913779835573
C        -1.87307810685028       1.75447654042825       1.16062236301904
C         3.74211417580762       0.80995603350610      -1.96269475053561
C        -0.76543595879046       2.44142159647234       0.36603689408886
H         2.34084926561374      -2.88717338007746       0.57896395126786
H         1.90720215612023      -2.97631589804363      -1.15005957373042
H         4.04052550544170      -1.73720031081549      -0.83644525940998
H         3.26352182654927      -0.61954285372386       0.29922873719322
H        -0.63842811100221       0.69244903529104       2.59896263416008
H        -2.24642167992576      -0.05233953449153       2.33695023686233
H         1.14866049086459      -0.71533698878373       1.92117821832567
H         2.55891295117405      -0.87169860368043      -2.68114661319931
H         1.73523657175769       0.18997990659260      -1.51197174912290
H        -0.32211097409174      -2.17578635872041      -1.84315578638026
H        -2.28116502853894      -0.59536564562279      -0.65161814615146
H        -2.74766162017441       1.54528468795238       0.51802562291337
H        -2.24077825070333       2.41615093680658       1.96413965126665
H         4.73255372659918       0.38164054219203      -2.18529910162156
H         3.82438700330800       1.42531844327907      -1.05328956236419
H         3.46074474751641       1.46677167381821      -2.79971232037792
H        -0.50374219994926       1.86232069936203      -0.53313607370781
H         0.15723563474137       2.53223487322937       0.95912968361730
H        -1.08834140625477       3.44052851910753       0.03861030787622
C         2.74313904140307       0.85253406001804       2.30008832164920
O         2.22969741099807       1.40542300641188       1.30257638039295
O         2.30437001222536      -0.09953312920373       3.00985681941310
C         4.16487701615911       1.34718719546004       2.72742432633530
F         4.18222947569701       1.78046606676058       4.02439193560586
F         4.63260941858766       2.36842526425547       1.95603116150669
F         5.08034065340337       0.32627022722507       2.62820682296872
