35
C9H18F3NO3S optimized with DFTB in AMS.
N         0.55629634274230      -0.17165905371495      -0.46858293952787
C         1.43573345214338      -0.16576510952791      -1.68630121613704
C         1.51884770260880       0.09037198501922       0.65561992019178
C         2.48953572683688       0.90511640032348      -1.42920156623727
C         2.56339153748011       1.05087162146862       0.09689493330817
C        -0.09382421690730      -1.50992272227442      -0.27576856306999
C        -0.43934550887386       0.94405243680460      -0.58783948532039
C        -0.99292292132656      -1.92585044042077      -1.42760469006378
C        -1.46906218285563       1.00366215390078       0.53168356780148
H         0.83246683919767       0.02090694147417      -2.57480280387773
H         1.90246211795562      -1.14863118030894      -1.75465238069683
H         1.97572489167388      -0.86449506707910       0.92093815363011
H         0.98036950067693       0.48495411608113       1.51649949504908
H         2.21935101576882       1.85156449781892      -1.90333052482658
H         3.44663842257745       0.57156222285855      -1.83269288943259
H         3.54903767600513       0.76255886851995       0.46504408487304
H         2.36266431744759       2.08006133628165       0.40364408428944
H         0.71603035203056      -2.23476978621594      -0.16096534934904
H        -0.65172434704878      -1.46883953014856       0.66177357067520
H         0.13401861116432       1.87345260199698      -0.61382304313107
H        -0.94767782584500       0.82803087674918      -1.54798206492112
H        -1.39814745931649      -2.90915233987723      -1.19052857282332
H        -1.82484795673382      -1.23779350285024      -1.57327809657490
H        -0.42868601380875      -2.00664775465775      -2.35504955937726
H        -2.04276785398687       1.92176681969082       0.40623607605967
H        -2.15918066780875       0.16315630008600       0.48714266313446
H        -1.00147194557050       1.02556649972651       1.51430737932446
S         3.59924456924176      -2.87247852912073      -0.00393758200422
O         2.41924424167227      -2.90112327831389       0.85674523555740
O         4.77301140368709      -3.50442361830887       0.52678681085159
O         3.80566631412435      -1.57382513889515      -0.63692721244255
C         3.05501357630609      -3.92132759833240      -1.43679241641568
F         1.91942063016155      -3.38342921560000      -1.93858753884259
F         2.77847702219080      -5.16749264004296      -1.08439047947754
F         3.94625015038898      -3.94404159531075      -2.41704276039653
