55
C17H32F3NO2 optimized with DFTB in AMS.
N        -0.70709600886811       0.77342147095697       0.14573869072808
C        -0.95586014122240       1.78747526171932       1.22387712193800
C        -1.94944090491083       0.59414002901976      -0.67686553093198
C         0.34807993592697       1.31926590422264      -0.78712217627109
C        -0.30226087773086      -0.54025703723993       0.77975087702815
C        -2.14862210169527       1.42391994481606       2.09660400624213
C        -3.19021981891212       0.26031583717028       0.14589338477813
C        -3.41368027130879       1.29043896861404       1.25185076844495
C         1.65482108209048       1.70401205170928      -0.09944317653299
C         0.51936259450497      -1.48066564962403      -0.09458777509319
C         2.81449687137526       1.72015872351731      -1.10115758608347
C         0.71866457749613      -2.79321737716384       0.67607516679993
C         4.13690894497288       1.93731454466958      -0.35697818837255
C         1.75093135087587      -3.68051594104699      -0.02305447663989
C         5.32473626806343       1.91253673102865      -1.31539934229061
C         1.94432314224571      -4.99585028690764       0.72843842384462
H        -1.12769884475024       2.74858235022614       0.73033662148164
H        -0.05121531543088       1.85227555588702       1.83081425971544
H        -1.74478889200648      -0.19749905796025      -1.40137049484612
H        -2.11475408003562       1.53087769612883      -1.21674467966669
H        -0.09089527705407       2.19385597744184      -1.27588101787028
H         0.51795472929777       0.55645904539547      -1.54944266335784
H        -1.22134090727997      -1.04237884090799       1.08426658766007
H         0.25675654404924      -0.30970142747037       1.68707050745497
H        -2.27419945872084       2.22232981361095       2.83208597326906
H        -1.95448750080121       0.49673393776679       2.64099510329306
H        -3.11384498745705      -0.74090949914963       0.57692865168109
H        -4.04166113685907       0.25822409806545      -0.54005183523370
H        -3.66412538809287       2.25956073303705       0.80772907032267
H        -4.25025789104865       0.97732203042839       1.88051278889257
H         1.55749684634991       2.68769882528893       0.36697376097670
H         1.89976795161263       0.98561514799077       0.68035897595381
H         0.01995756497961      -1.67181123732266      -1.05048497788482
H         1.50458918300135      -1.05118265890827      -0.28656654765096
H         2.66003695461999       2.50866095265981      -1.84627331004897
H         2.84928203544989       0.76016157231242      -1.62816268859577
H         1.07527248493568      -2.55441742966410       1.68311334792877
H        -0.23742102936566      -3.32064165773414       0.76563336288606
H         4.25214803674196       1.14916628278481       0.39397866038458
H         4.10496697350664       2.89858500843647       0.16566907274307
H         2.70432960939450      -3.14469205875770      -0.06846106409039
H         1.42870153839297      -3.88729348867704      -1.05038709597788
H         6.24748042390814       2.09778082150250      -0.76556370067749
H         5.40195038818564       0.94032594560835      -1.80435478703394
H         5.21749827053970       2.68043049913423      -2.08394367035005
H         2.69406141119240      -5.60722705685424       0.22550504185616
H         2.27913852226223      -4.80381816231303       1.74823600371802
H         1.00872446677385      -5.55635857558180       0.76933234338984
C         2.37139426442008      -0.32829317301852       2.69554155395284
O         2.96807464428969      -0.58341321107740       1.65251299392350
O         1.43590622228278      -0.87985853614087       3.26789120495035
C         2.78235361455988       1.09286270675629       3.35974879807285
F         1.83295878609071       2.00823910817991       2.97189789688067
F         3.95489191086474       1.58151759856313       2.93225762938612
F         2.79845537889739       1.11631164307103       4.69507828712277
