49
C15H31NO2 optimized with ADF in AMS.
N        -0.24909245152340       0.66368679867810      -0.34606152400327
C        -1.30588393723156       0.46455159976894      -1.40799950109076
C        -0.89906818482022       1.25843574477055       0.88296547391257
C         0.78470604164981       1.64670470692386      -0.91315101711959
C         0.44318872962465      -0.65098749392589       0.02855471807702
C        -2.46319166586835      -0.39667560905787      -0.93265479182774
C        -2.10856127761760       0.47794155583334       1.38276009406864
C        -3.13826904812130       0.24444988164330       0.27929439748694
C         1.69395285954175       2.30696456646240       0.10747231861495
C         0.77556891570080      -1.56720096674861      -1.13473144829712
C         2.74420653214233       3.14442040393929      -0.63437675389532
C         1.56907803879736      -2.76718851367216      -0.60238196008101
C         3.79503927698038       3.69505221182222       0.32577473982152
C         2.10469805437464      -3.63426457681953      -1.73817762216912
H        -0.79429319946531       0.05209474613491      -2.28769734843642
H        -1.66942074872224       1.47336493261745      -1.66305123169963
H        -1.19152268464007       2.28429640294167       0.60243822917872
H        -0.11639567227389       1.31941477778360       1.65076372339826
H         0.20290258181944       2.39786935791802      -1.47233446344386
H         1.43278462570699       1.05318933359638      -1.58913882068997
H        -0.20750761596931      -1.15507183160043       0.75544552128926
H         1.40864374138144      -0.36275730454973       0.49319120806594
H        -2.11078329374625      -1.41217338402626      -0.68671167199853
H        -3.17181693264324      -0.50122437506547      -1.77146808879186
H        -2.54522881217688       1.05632415242316       2.21468009669914
H        -1.79196896876456      -0.48609761613224       1.81392312151865
H        -3.58306242476674       1.21143972745205      -0.02146863480291
H        -3.96184105640360      -0.38718530303300       0.64944643831324
H         2.23799435253517       1.52034132487279       0.66052162133825
H         1.14101422976393       2.95708636347439       0.80743020033175
H         1.43562195235484      -1.02339225527754      -1.83411481616520
H        -0.12446079074910      -1.93028154560168      -1.66125270499105
H         2.25164893045349       3.97263020744303      -1.17846799979500
H         3.22941785088724       2.49614838085693      -1.38285022512739
H         0.93244043322477      -3.37088681778796       0.07256600097958
H         2.41038979494452      -2.37754774180564      -0.00491833990638
H         4.31418505524973       2.86541937305693       0.83096688821931
H         3.34038360436618       4.33611342453814       1.09924989593211
H         4.54803846898002       4.29404046005439      -0.20912465340452
H         2.77595782353998      -3.04104999715536      -2.37903929335339
H         1.28914750114415      -4.02736294943566      -2.36797420407831
H         2.67360014076312      -4.49234753557860      -1.34868031458911
C         5.38865043076621      -0.47451598781354      -0.99449723213000
C         3.89709707263411      -0.16044803255727      -0.82613307308465
O         3.24758440989614       0.12230157833307      -1.88198771035938
O         3.44275591366341      -0.23190496519710       0.35986291161463
H         5.75942125905344      -0.14284457567317      -1.97379554580272
H         5.97111931195485      -0.01353787572982      -0.18351594926075
H         5.53288073320873      -1.56420435299440      -0.91431001956555
