49
C13H28F6NP optimized with DFTB in AMS.
N        -1.81664286540229       0.03304367576610      -0.00898333372480
C        -2.74496489066729       0.60121527966466      -1.04259426074015
C        -2.11246285648960      -1.43632289767494       0.14532704088188
C        -0.41826741351400       0.18722794477393      -0.55146974180482
C        -1.96379063707774       0.72199740015519       1.32029534067630
C        -4.21567323783139       0.36736420234495      -0.71750384033182
C        -3.57021968136617      -1.72610240438970       0.47327750950337
C        -4.50214132777525      -1.12709574636268      -0.57555484035664
C         0.69598319455914      -0.29895074772783       0.37229470573392
C        -1.65024369708791       2.20888360722869       1.31349822643098
C         2.05032006862820      -0.10821334100031      -0.31991515691144
C         3.18858999642783      -0.58378383773242       0.58831361979368
C         4.55029726368313      -0.41130725663576      -0.09131229377210
C         5.68549363795368      -0.88365650889721       0.81543806404901
H        -2.49637432482330       0.11419668166773      -1.99010601424350
H        -2.53175720345268       1.66773803146107      -1.13617172146177
H        -1.47543179263262      -1.82012925096198       0.94033749880259
H        -1.83764295729985      -1.91207997057790      -0.80053208260571
H        -0.27955545408486       1.24585149985456      -0.78635170532889
H        -0.38778455379532      -0.37326213602259      -1.49033494601224
H        -2.98765360082817       0.56448883373281       1.65761458553263
H        -1.30494522360826       0.20430957026870       2.01657192912740
H        -4.80273193260622       0.78800579992471      -1.53838310172482
H        -4.49633128150545       0.89557445996222       0.19708948787648
H        -3.82103261223661      -1.34847926828921       1.46563506577154
H        -3.67806800370551      -2.81280197900811       0.50137293531150
H        -5.54274212266084      -1.27571374720948      -0.27919620785903
H        -4.34745278304826      -1.62129383707994      -1.54071302713171
H         0.69165344583523       0.25831075374091       1.31063759864920
H         0.56039740129109      -1.35466161723607       0.61201808271634
H        -0.62079090895225       2.41034961213327       1.02245931390438
H        -2.32046873262149       2.77050350382323       0.66379599717809
H        -1.78820366129464       2.56734192971528       2.33349873387933
H         2.19158214078137       0.95027971531996      -0.56569340058867
H         2.06579786652452      -0.67465161060084      -1.25762280404931
H         3.03468874102554      -1.63808245085680       0.83927583012399
H         3.16952319268606      -0.01232217554613       1.52193606660873
H         4.56675774186850      -0.98434744330019      -1.02480873450741
H         4.70047673333145       0.64399185139039      -0.34440797666604
H         5.56241221749007      -1.93870809268900       1.06276137696145
H         6.64409473708644      -0.75360227008810       0.31282623234254
H         5.69776504683785      -0.30921546355267       1.74250608191518
P        -1.48459473622752      -2.25865704388826       3.80778201553131
F        -0.38783661916917      -1.50605193370882       2.75176671966462
F        -2.62675113398083      -1.12149219768074       3.32295567221814
F        -1.97060296928888      -3.21033926397676       2.53047392340502
F        -2.58396334858283      -2.95928713522599       4.77534592211996
F        -0.34254579097898      -3.34620031150584       4.20145439099685
F        -1.00136027541404      -1.24472099060208       4.99064287531448
