79
C23H36F18NP optimized with ADF in AMS.
N         0.94162666511840       1.57418023156363       0.53021096336938
C        -0.48562226660254       1.85390811319372       0.10016621140369
C         1.55121558432067       2.85596800297648       1.07537556473372
C         0.98315030467202       0.50640116029257       1.61773391433254
C         1.71084863135731       1.13567935645552      -0.70875242133340
C        -1.34102224899466       2.45561581669180       1.20424177300277
C         0.73530369809259       3.46567273267674       2.20284344985990
C        -0.70742211075506       3.72651584453199       1.77291119380398
C         0.64678617933529      -0.90908746068728       1.18576058015506
C         3.18619603161491       0.85840775049484      -0.49670886374192
C         0.47632485288971      -1.77260874548045       2.44441604517293
C         3.83797831770653       0.36878650451967      -1.79324322218349
C         0.54166703573248      -3.26920894129680       2.15143463389258
C         5.31775493754658       0.04848432134929      -1.58477288333041
C         0.43444726407113      -4.11295025337886       3.42150328904439
C         6.02289644044500      -0.40149868174436      -2.86246099135066
C         0.63632660553966      -5.60269532473331       3.15647248317359
C         7.46946381356055      -0.81915880588632      -2.60736358659952
H        -0.40846335474461       2.55268845632304      -0.74850595829262
H        -0.89649982790577       0.90540839766823      -0.27214606619720
H         2.56499833042548       2.60870620754959       1.41038671718455
H         1.61250521702118       3.54598007095282       0.21688636440928
H         1.98924486863620       0.54679326171280       2.04720125483896
H         0.28833342616466       0.83851106415201       2.39744203037299
H         1.19291937706346       0.23958933344247      -1.08173634958563
H         1.56514000970772       1.94262053897938      -1.44500202402005
H        -2.32917606796426       2.67323635602799       0.76582082884308
H        -1.51838423667820       1.71690879405646       2.00270975841554
H         0.78004030357534       2.82256803793225       3.09673997121253
H         1.23654029947538       4.40552617440942       2.48712975351784
H        -1.30080335953628       4.10260244541302       2.62061694260790
H        -0.71995754337107       4.51507141613262       0.99758856212176
H        -0.27509082550055      -0.95058594998293       0.58004934432523
H         1.46634655850380      -1.32620055356300       0.57865268678621
H         3.33337381685892       0.09761827515084       0.28134658500999
H         3.70932450090827       1.76855702061863      -0.16550580661017
H        -0.48308163731256      -1.52144612297030       2.93412515489365
H         1.27630814558275      -1.52691591501515       3.16137855812266
H         3.72860097519410       1.13471719284047      -2.58427706232419
H         3.31627950499002      -0.53750534161799      -2.15239393223739
H        -0.25300159832342      -3.55778987064657       1.43626164717846
H         1.50783129905201      -3.48724042725930       1.66232603196249
H         5.83147631962848       0.93864014555864      -1.17628638643600
H         5.40923509830945      -0.73837223966275      -0.81777640443910
H         1.19559232646148      -3.76270204687246       4.13883223940196
H        -0.55063568835446      -3.94282232485998       3.89374050016852
H         5.46680564434091      -1.24776373824462      -3.30589730282651
H         5.99299806760722       0.41713448087743      -3.60522108139311
H         0.57456998675879      -6.18583268785118       4.08780074791728
H         1.62963580726182      -5.78500485544248       2.71694863807204
H        -0.12189188018868      -5.99398244698729       2.45827606125009
H         8.04473531631321       0.00570141027534      -2.15763891942519
H         7.51124592421843      -1.67171599515371      -1.91115003142266
H         7.97482546683878      -1.11621397865130      -3.53897927754128
P         4.73898893765857      -1.48724425182110       4.65386299096011
F         4.54737967901623      -1.33701470653649       6.28929958680003
F         6.28907090646678      -0.90033488796904       4.67691981755085
F         3.16844464575019      -2.05817470575076       4.52314885350532
C         5.45150681052365      -3.27417417202895       5.07036009988239
C         4.07903919175808       0.46894073318597       4.57899319565422
C         4.79768639052885      -1.59623645758844       2.61351109200257
C         4.48460625260112      -4.37775398171278       5.59974765731674
C         4.68794698049756       1.60109293188422       3.68210831318273
C         4.82029096927894      -2.87242138240601       1.70594373225438
F         6.40237142965615      -3.13888445583758       6.05620407591593
F         6.10172895153610      -3.83817831488943       3.98916111864751
F         4.25940090280004       1.00419790618069       5.83479116013750
F         2.70630235844350       0.53483207040794       4.33081420045145
F         5.81648953994602      -0.81383735960452       2.11707952905671
F         3.59841249767757      -0.98775518598973       2.22117254763972
F         5.21108733141204      -5.48237158258818       5.93760762555073
F         3.58222811612961      -4.76855244083089       4.66519545534678
F         3.81236893663132      -3.97243166382796       6.69838316805294
F         4.11044975977817       2.80115016835650       4.02374802946329
F         6.01471912940678       1.72046878465567       3.84780042227778
F         4.43714879042300       1.45439793156738       2.34769223201767
F         6.06655101101458      -3.33921847390949       1.50303173688435
F         4.32639052430751      -2.54737954524811       0.45771994469189
F         4.03231720308908      -3.85483105863023       2.18486758628934
