39
C11H14F6N2O4S2 optimized with DFTB in AMS.
N         2.49466870391620      -0.12361773728253      -0.00996972606205
C         0.08540558833426      -0.37674248133922       0.38704421548237
C         1.48006767706138      -0.39578928046508       1.01398122651084
C        -0.97284741601241      -0.70928097184848       1.44373701295913
C        -2.37576586633202      -0.69874614387935       0.84113271940779
C         3.08014445068979       1.08182987433406      -0.06692346673599
C         2.84132553900904      -1.10358722137652      -0.85762904189392
C         4.05108142698985       1.34583327759858      -1.00976348922398
C         3.80302923941094      -0.88607029823455      -1.82288878818497
C         4.42480326678777       0.35120134030755      -1.90400191283535
H         0.04320587113186      -1.10980015114249      -0.42449888493360
H        -0.10778753029797       0.61242010502128      -0.04106124905366
H         1.70163560000997      -1.37471842558131       1.44570003411661
H         1.56876594105497       0.36419340781153       1.79248420967904
H        -0.76232532871112      -1.69662367456568       1.86619356076147
H        -0.91644186891777       0.02283384546859       2.25571201119402
H        -3.10956727822143      -0.93876170334677       1.61008494120400
H        -2.60972744964606       0.28458399886398       0.43105330867893
H        -2.45448098923007      -1.43707709978851       0.04229135170306
H         2.77187007507901       1.81478341286787       0.66787951955367
H         2.36162853663813      -2.06480258465076      -0.72592861778854
H         4.52428700021991       2.31907416349218      -1.02464155834287
H         4.08158346902621      -1.69914284837575      -2.48008089752739
H         5.19956454690335       0.53335164694264      -2.63840691829974
N         5.39002331930191      -2.71275444807877       2.57608980129377
S         4.36878862574667      -3.59449630404439       1.71561272383642
S         5.51605783234075      -1.16640200479651       2.19957234769369
C         5.25797821254547      -3.99979029980612       0.10107682964828
C         4.24829054949604      -0.28473359519909       3.27841779196379
O         4.21767656190172      -4.85913942884062       2.37495713293831
O         3.15714634189887      -2.91633408998415       1.26892538019653
O         5.11649210228878      -0.80257931944023       0.85031282904198
O         6.77174621956546      -0.67400405885116       2.68868941737329
F         4.54097651206146      -3.54381280007036      -0.93158866632684
F         5.38977767166789      -5.30621045732503      -0.03377729834165
F         6.45257684102404      -3.43897025070532       0.05387368187236
F         3.85600034620108       0.84212458286316       2.66377776972470
F         4.75247206888909       0.03764909400236       4.45229701666723
F         3.16184091587696      -1.02526955055508       3.46813317894925
