33
C9H15F3N2O3S optimized with ADF in AMS.
H         0.03323875198302      -3.20425968057637      -2.61572872494671
H        -1.56696349836915      -2.67146042022919      -2.00880486749478
H        -0.55222301832053      -3.74702292395818      -0.97714080458622
C        -0.54294221986580      -2.93427948808651      -1.72235492037985
H         2.41905401753970      -0.04802220704683       0.39931454206215
H         2.13658154746617      -2.40414487139774      -1.06093923394826
H        -1.66070642676212      -0.60999012627771      -0.56520544554621
N         0.07665841798099      -1.77195124374567      -1.09420362565076
C        -0.58837435624313      -0.74563445615259      -0.55125973418477
N         0.29540907885010       0.05933526024137       0.05193880246796
C         1.55142445818087      -0.49707677226664      -0.06582636045493
C         1.41502200066439      -1.64649126844647      -0.78484314218436
C        -0.05813903676928       1.21583170515553       0.88615667758591
H         0.79829784024387       1.90730786474529       0.85185276970771
H        -0.90908268905772       1.71994795979960       0.40054604389338
C        -0.39221332558524       0.79070674334422       2.31002733025776
H         0.46686105786430       0.24747446993097       2.73636739041598
H        -1.21030948056116       0.05076366445378       2.27759245045417
C        -0.77095114346874       1.98606199563959       3.17839124744727
H         0.06128558729457       2.71457745359783       3.19703556557574
H        -1.63713593916424       2.51022932426418       2.73240334505443
C        -1.10995072981981       1.55486092352854       4.60377504110665
H        -0.25020055923395       1.05087797157577       5.07267296625230
H        -1.94878887749974       0.84129926079470       4.60396052185888
H        -1.38874840686454       2.41524525615714       5.22938322019361
S        -0.43944580936191      -3.03592518095394       1.95989316738846
O        -0.08815606322980      -4.17621381079081       1.08952349947957
O        -1.62150042227459      -2.26159671274452       1.50439206328571
O         0.69755215038487      -2.21901717360686       2.41811141228905
C        -1.04983454269969      -3.84892876092610       3.53236419281460
F        -0.06204604999707      -4.57524376789803       4.11765896353499
F        -2.09472863439014      -4.68272434767971       3.28439363164194
F        -1.46725881191447      -2.91157515204465       4.43014099360861
