55
C17H35NO2 optimized with ForceField in AMS.
N        -1.08701795490863       0.81953351669249      -0.18043195387167
C        -1.56213484548771       1.86296919912923       0.78687572273532
C        -2.07264075998216       0.72532557364489      -1.30666587439296
C         0.20967849656482       1.28215460712326      -0.78584806596219
C        -0.92705683608209      -0.49419051479988       0.53752812570018
C        -3.00389232710986       1.64398942809768       1.28908736454908
C        -3.51647135375567       0.44711478961556      -0.85701496602086
C        -3.98363114757562       1.51529135128118       0.12657311313783
C         1.41410908464154       1.36842101204095       0.18437834629178
C        -0.34427858276671      -1.65424264099335      -0.30612606544310
C         2.66236026348673       1.87956433800983      -0.54634941876712
C        -0.20289252523440      -2.92374331346107       0.54380089153522
C         3.87329971480814       1.92379667995012       0.39283120019502
C         0.38023151395971      -4.07716620884656      -0.28064504183279
C         5.11368921070979       2.43593938291616      -0.33299895415288
C         0.50941651601991      -5.34481283700828       0.55857256108284
H        -1.52255579538624       2.87446258901136       0.32025005806676
H        -0.91045958604482       1.90031187052844       1.68612448330774
H        -1.77406237003682      -0.04349489613379      -2.04899536292687
H        -2.09337458172887       1.68410295903315      -1.87632733294520
H         0.07618295370101       2.29137848716010      -1.24060907112627
H         0.49554798163091       0.62615955424300      -1.63817101675970
H        -1.89579256714193      -0.84646465159562       0.94126715608151
H        -0.29042902659129      -0.36177579847923       1.43962166505428
H        -3.30271579804994       2.51382499359104       1.91324055448369
H        -3.06601341691028       0.74876220123366       1.94202553201156
H        -3.61223980994035      -0.56400038275126      -0.41087302547202
H        -4.18024381165697       0.46765188616882      -1.74838650005040
H        -4.06618320191002       2.49293173119185      -0.39781972083208
H        -4.98956723123751       1.24757601288396       0.51560488803766
H         1.19282380579193       2.06495986896660       1.01811464444931
H         1.64972682745609       0.36942781632738       0.60399798097544
H        -1.01497413231575      -1.88669175674267      -1.15753434000387
H         0.65879104016319      -1.39226321645576      -0.69880207681454
H         2.46554487451699       2.90100411438153      -0.94047545146943
H         2.88954099372445       1.20758953310033      -1.40319590928509
H         0.46613036235242      -2.71624073047560       1.40789965426345
H        -1.20214857531262      -3.21938510402423       0.93325896477166
H         4.08200702810290       0.90416511297026       0.78398251789147
H         3.65738633477621       2.59372919134991       1.25344029021682
H         1.38516552302142      -3.79382938282749      -0.66194519808782
H        -0.27966974486347      -4.28837870549497      -1.15006572499819
H         5.97496235868109       2.45236787466994       0.36756719863991
H         5.36306334046079       1.77056878253813      -1.18687238980377
H         4.94185059279390       3.46690831647051      -0.70906989351982
H         0.93702793425184      -6.15973280601466      -0.06253727132906
H         1.18190997024640      -5.16813620222956       1.42476599444436
H        -0.48780885920352      -5.66595469979813       0.92793203628176
C         4.16631858166083      -4.43133809461963      -2.52491541577867
C         4.79298169437568      -3.07744986241034      -2.40973113712464
O         4.09632086192088      -2.10022781476595      -2.18909737587503
O         5.99996064003021      -2.94516768080175      -2.53588478219809
H         3.66037164060859      -4.69066909407450      -1.57141949351163
H         3.41907443552229      -4.42749389478229      -3.34606823262202
H         4.93561750095261      -5.20277951683479      -2.74373500122683
