56
C16H34BF4N optimized with ADF in AMS.
N         0.62345203772299       0.99599566677285       0.90410222000800
C         0.51979377613930       2.32012166014008       0.16110337748099
C         1.34362031352320       1.40397546626384       2.18318240840633
C        -0.74725042683261       0.45316821033759       1.24898518034464
C         1.44978870945182       0.02072593156699       0.09192313194022
C         0.22334418647967       3.36823560549328       1.23026909473472
C         0.78060867863861       2.77748585586814       2.55106169319290
C        -1.56126624821258      -0.06208046220239       0.07240951225645
C         1.67754085402878      -1.32126933140811       0.76446362344669
C        -2.97419822474520      -0.45341717637365       0.51488502480308
C         2.65947069048881      -2.17970412228779      -0.04927610166588
C        -3.81785059387595      -0.99956162874649      -0.63656080364391
C         4.09325634758987      -1.64839284484442      -0.04090355357949
C        -5.23025494027513      -1.39448035017606      -0.20803712367821
C         5.07326014926655      -2.55305611246703      -0.78629141516500
C        -6.06791633650663      -1.94234896987681      -1.36142846818569
C         6.49815017422832      -2.00250624828282      -0.75477543875498
H         1.50869813794750       2.48556776046617      -0.29167676203656
H        -0.23901950312650       2.22665574220780      -0.62513174699478
H         1.18195250007600       0.62787758891220       2.94166360092213
H         2.41210946421295       1.46786875280957       1.92527632827601
H        -0.58887800798954      -0.35017629733219       1.98354320412442
H        -1.28098934440886       1.26970726929714       1.75845711831568
H         0.93377640926829      -0.09899836781282      -0.87317089386169
H         2.39743548717406       0.54297518313908      -0.09729079358323
H         0.73702060558795       4.30165311532726       0.96210183832817
H        -0.85390277919951       3.58029914649697       1.31176900214303
H        -0.00579028984580       2.70619005734894       3.31797233062435
H         1.59530358643948       3.39645630662851       2.95100550313757
H        -1.63553621753409       0.70398627760948      -0.71748860504261
H        -1.07171892737678      -0.94248197095934      -0.37588951836938
H         2.10221874767178      -1.16872647481369       1.77135194576678
H         0.72511364557687      -1.86690437424789       0.88262813724348
H        -2.91528832663998      -1.21454965912750       1.31527597105365
H        -3.48176826699348       0.42512431085181       0.95480065362377
H         2.29642694165587      -2.27096671111723      -1.09082606965643
H         2.64705984355050      -3.20192853061885       0.36986487292873
H        -3.87821823436977      -0.24005954028872      -1.43889030185655
H        -3.31071232581212      -1.87817352217633      -1.07791238354407
H         4.14161580736728      -0.63574430270738      -0.47389040367899
H         4.42942577064237      -1.53334363481751       1.00608953566451
H        -5.73317327164554      -0.51422265557417       0.23262088939429
H        -5.16537756073794      -2.14953862422231       0.59678805578654
H         5.05191402230502      -3.56597422318098      -0.34175481833553
H         4.74092119523272      -2.66678183485726      -1.83476438832258
H        -6.17086139315594      -1.19501148501579      -2.16458575750218
H        -7.08001303639607      -2.22006099900937      -1.02987874175975
H        -5.59946117392863      -2.83930695435023      -1.79794687007020
H         6.85708565963752      -1.90583340116080       0.28247278691620
H         7.19953492545140      -2.65423747596088      -1.29784380957105
H         6.53994979237411      -0.99991170096722      -1.20901717660084
B         4.18669499568374       2.65120938952607       0.22155134085001
F         4.31096744843622       1.49792249156078       1.07510067966574
F         5.43318668790565       3.19018674258938      -0.08174932767644
F         3.34287193386748       3.59942584006032       0.88628247510722
F         3.50393730168596       2.22089814860979      -0.97690294035027
