41
C11H24BF4N optimized with DFTB in AMS.
N        -0.26309877962106       0.00495188402104       0.15339012273707
C        -1.11329422100451      -0.83627837287558      -0.74652967686709
C        -1.03496187248215       0.00262259077359       1.44312358167688
C         1.07877802158210      -0.63225498533577       0.38503094729952
C        -1.63340702880682      -1.96692400957881       0.13833178696253
C        -1.58866519163333      -1.41146854828729       1.57070257659034
C        -0.13707065921432       1.39139165451521      -0.39690279091043
C         1.98717735900899      -0.72023721482182      -0.83588609103122
C         0.71940950841543       2.31965585435068       0.46441318971394
C         3.28083475646673      -1.43189216996826      -0.41290027213735
C         0.61477807058779       3.74900931322894      -0.06241728568853
C         4.30327523858892      -1.44034919978775      -1.54575646087226
H        -1.93463180376096      -0.21067193280840      -1.10491642964643
H        -0.52753518499016      -1.17919908104700      -1.59846625075697
H        -0.37118156675065       0.27099327829995       2.26450577956730
H        -1.83668712081651       0.73889096918692       1.34821669493164
H         0.89259905343318      -1.62788991936487       0.78894927649991
H         1.57157941968786      -0.04817406569509       1.16024912626020
H        -2.64738621485514      -2.23913182491354      -0.16021072550323
H        -1.00259201871354      -2.85298708498100       0.04424730414966
H        -0.93340469734303      -2.01215707941133       2.20426223080692
H        -2.58070588670527      -1.38867309016244       2.02462373436074
H         0.27788824383527       1.30640743839034      -1.40483203182621
H        -1.15266624989885       1.79062328420455      -0.47840598137052
H         1.51373651444957      -1.27650910327613      -1.65151419014090
H         2.23199220285298       0.27939174604402      -1.20672463931837
H         0.38649505023715       2.28485760968594       1.50352766546088
H         1.76385010217234       2.00232381834361       0.44171601604536
H         3.69822701781209      -0.92517695021138       0.46187275429063
H         3.04619857413530      -2.46042614903771      -0.12163231881197
H         0.95574225140909       3.80551304656302      -1.09730884967599
H        -0.41579044085788       4.10356407009833      -0.01444961859227
H         1.23683534858319       4.40540719945854       0.54470291068489
H         5.20887432360151      -1.95270920268903      -1.22234039208837
H         3.90575728093124      -1.95628213068913      -2.42171538823946
H         4.56525636828023      -0.42102662764514      -1.83389344335325
B         1.91325663047473      -0.30244434414533       3.42963597266070
F         0.94159952568176      -1.30024209953649       3.12479101163111
F         2.22389826893129      -0.29788080615838       4.75604438264028
F         1.32777658331308       0.94350233090759       3.03063579656912
F         3.02888929988230      -0.52026995964463       2.60920486939118
