52
C14H30F6NP optimized with ForceField in AMS.
N        -0.07063128682073       1.48263845747582       0.00091190060522
C         0.52874809975282       2.41615447874464       1.00489364299927
C        -0.74503009311458       2.36778342427951      -0.99822791989464
C         1.00948078055997       0.69597461277945      -0.67996969204045
C        -1.07966421694374       0.60340327240690       0.67758010380795
C         0.01415161672763       3.81635817888054       0.72465575690696
C        -0.30337509457437       3.79643330720139      -0.74435558038690
C         1.75825754968299      -0.29968669341158       0.23986357602067
C        -1.76957071490134      -0.42192247457764      -0.25513439018658
C         2.99190620221791      -0.87374395318130      -0.46837821966842
C        -2.87799382600875      -1.17536582370509       0.49044953877830
C         3.71548948928406      -1.89730724247086       0.41460014414265
C        -3.58128110318061      -2.18124142560075      -0.42874632912699
C         4.92027671384763      -2.49046827391103      -0.31097121154738
C        -4.65456123341819      -2.95813062567596       0.32928109455606
H         1.64004438412872       2.45915875739514       0.93173155035138
H         0.30138513415362       2.13458945033413       2.05872825039389
H        -1.85450987871042       2.35140961446525      -0.89431383118524
H        -0.52883041086586       2.08555323467722      -2.05422604352738
H         1.75297907596350       1.39709256412683      -1.12559002640350
H         0.59444104236710       0.12651679100794      -1.53928303911686
H        -1.86815163649422       1.23747698770639       1.14577956790058
H        -0.61048971251629       0.04871913440828       1.52003253534969
H         0.77093749362485       4.59385653013444       0.96742155936970
H        -0.91287155105097       4.00330229572319       1.31022664503637
H        -1.10002662634894       4.52893544338173      -0.99952602852611
H         0.61254452643219       4.02057886326818      -1.33408761120366
H         1.08678314996064      -1.14234801578633       0.50885971937319
H         2.08230074393797       0.19749509754025       1.17819983019743
H        -1.03153337024063      -1.16678211162561      -0.61510956085966
H        -2.20977750683345       0.08550914294316      -1.13901279267169
H         3.69208388987935      -0.04584589529565      -0.71689490306733
H         2.67732027760969      -1.36345537403580      -1.41553360448596
H        -3.62611218037822      -0.44764465402828       0.87554803750179
H        -2.43358722383183      -1.71562170690306       1.35563520539889
H         3.01874486676053      -2.71996310432802       0.68630441887162
H         4.06194520668347      -1.40654258178409       1.35039963401951
H        -2.83880964462498      -2.89960015335893      -0.83973924478258
H        -4.05662776748553      -1.64314997772844      -1.27786394763176
H         5.42965110649020      -3.22470863013108       0.34760451584610
H         4.59371022112388      -3.01029359326843      -1.23667698348293
H         5.64300449574913      -1.68980320910842      -0.57643659312113
H        -5.15452412012674      -3.67256407539999      -0.35759743669973
H        -4.19763893701493      -3.52969599242969       1.16487838870512
H        -5.41894597001927      -2.26275024568110       0.73679613762455
P         0.54446436988253      -2.61227952569726      -3.88652211254898
F        -1.07334406401043      -2.03472742415982      -3.92545854436844
F         0.04863507808792      -4.25509479294070      -3.97072217123038
F         0.62810475237888      -2.71449426921760      -5.59959808925484
F         2.20796029808725      -3.01533099087504      -3.73749200473353
F         1.03138565675698      -0.96554361498958      -3.93009908469819
F         0.43264754978365      -2.70973265377328      -2.17562039730565
