46
C12H28BF4N optimized with DFTB in AMS.
N         0.35883042325337       0.16357005481646       0.16346336805480
C        -0.25374475442001       0.89618945740474       1.33123893222758
C        -0.69261394208028      -0.23687322971193      -0.83647369399881
C         1.03578856747015      -1.07467057721224       0.67663202335752
C         1.34026007254245       1.09315597375837      -0.51285528465127
C        -1.35946075794337       0.15921759200257       2.08014718778488
C        -1.56959667174242       0.90198592284626      -1.35693962641376
C         1.78452707543394      -1.89699230087919      -0.37222179242719
C         2.61327595708087       1.38598551783783       0.27887648354259
C        -1.86115196364037       1.07207541294459       3.20138607105694
C        -2.59953049490108       0.33414441151867      -2.33189638192376
C         2.52020852926572      -3.04533713152188       0.31901455819109
C         3.36124369762623       2.53253347126123      -0.40287340260020
H        -0.64667660747121       1.83514787905711       0.94395407140422
H         0.55973292697260       1.13591656010150       2.01766507933270
H        -1.31317009740708      -1.00181762888796      -0.36152716061852
H        -0.17031017315821      -0.69781535800489      -1.67869526776013
H         0.26257645826472      -1.69824720021047       1.13130107767318
H         1.72456459142324      -0.75788033644060       1.46331068285510
H         0.80654402695462       2.02979561335541      -0.68502530467900
H         1.59214240974942       0.65114111309103      -1.48046891592821
H        -2.19242551574277      -0.07293052650975       1.41092466871290
H        -0.99643683482995      -0.77926942377011       2.51107479566233
H        -2.08702811254106       1.40335019200402      -0.53788920542448
H        -0.96032979846556       1.64902480597358      -1.86788056546927
H         1.08525686665860      -2.31134013384571      -1.10314094110345
H         2.50945428634195      -1.27995635693938      -0.90729905293974
H         2.36587305346414       1.69558702701465       1.29557453327531
H         3.25829018649086       0.50312701845392       0.32822058493965
H        -2.69661051161095       0.59956785524657       3.71728938949441
H        -1.06496507336716       1.26065590533691       3.92196367645861
H        -2.18665563938568       2.02718813594371       2.78939714246021
H        -3.22742620921226       1.14228517083344      -2.70506286476036
H        -2.10710738103501      -0.14412805712792      -3.18010361312569
H        -3.23628213051598      -0.40137496103015      -1.83760684642298
H         3.04636702124176      -3.64356411814328      -0.42416457252892
H         3.24753669782442      -2.65897533255441       1.03379583874881
H         1.81647133689526      -3.68799862103660       0.84929947718073
H         4.30230098555105       2.71375421563708       0.11586473142926
H         3.57595001256494       2.29175951144145      -1.44516263655552
H         2.75817635576154       3.43903677764738      -0.36245131456568
B        -0.30217611021301       4.08276118144404       0.69985921097138
F         0.91555944464222       3.50344459252847       1.15502241278633
F        -1.32013690556447       3.70892673856152       1.59010614873933
F        -0.58333177306368       3.45715668806076      -0.55598234592955
F        -0.19080712126249       5.43525243700325       0.56487990818665
