35
C11H18BF4N optimized with ForceField in AMS.
N         2.37636316503261       0.03128809008764      -0.51204581619136
C        -1.43462211667353       0.05273627384678      -0.70560025470355
C        -0.03931787576107       0.02123030163825      -0.07510388050446
C        -2.52174777643344      -0.01049135656125       0.37256006167080
C         1.05387343961962       0.07868666658973      -1.14529704624003
C        -3.92060083522472       0.00928073475410      -0.25298365001034
C        -5.00161300928565      -0.06013811045544       0.82022620817340
C         2.96738995974355      -1.17788154791655      -0.26553805362970
C         2.99075450175284       1.19421117187124      -0.13495776178167
C         4.20985408173509      -1.24303241835848       0.36973123425934
C         4.23356151686668       1.16464853642362       0.50241885446955
C         4.84462629923680      -0.06289647475616       0.75440656479570
H        -1.54493635195912      -0.81444244339669      -1.39358606461200
H        -1.55021071784061       0.98986584238899      -1.29377168032171
H         0.07833251498739       0.88883262256920       0.61108670871011
H         0.07978580737043      -0.91373220168965       0.51569386100510
H        -2.39736170036768      -0.94347599465908       0.96534750958654
H        -2.41192912727057       0.86000272294263       1.05628358108601
H         0.94612481791155       1.01097237260852      -1.74422177814938
H         0.93541811391218      -0.77313079292177      -1.85231304673753
H        -4.05647915075807       0.94347300115520      -0.83995455299833
H        -4.03848658843111      -0.85882269869821      -0.93727488578605
H        -4.92073010778828       0.81101517269429       1.50502013003598
H        -6.00382519530420      -0.04391685058008       0.34249999805165
H        -4.90282967519087      -0.99937007206684       1.40549163092485
H         2.47540366467047      -2.09997471832044      -0.55209862872390
H         2.51728740212023       2.15169585884269      -0.31780007508521
H         4.67448208305672      -2.20094864187061       0.56326412947325
H         4.71673097399350       2.08610743973680       0.79968769898074
H         5.80681338876787      -0.09965737074038       1.24848793922539
B        -5.04606369303982      -0.58951730336087       5.02979136677400
F        -5.59951550511068      -1.72728995673674       5.67460112355036
F        -3.71903665788625      -0.87884718137460       4.61394237518864
F        -5.03154906856427       0.50644515721022       5.93269618854029
F        -5.83668493258759      -0.25790247839606       3.89880101827351
