31
C11H18ClN optimized with ADF in AMS.
N         2.46214287465486      -0.01277156405841      -0.63822015865488
C        -1.37517886215523      -0.00184289309881      -0.75307093959867
C         0.02994263579202      -0.01890680099710      -0.15986008139188
C        -2.46715910378946      -0.02581872288519       0.31564952317558
C         1.12266244847435       0.00451714769048      -1.22604524861366
C        -3.87835640695032      -0.00871840397445      -0.26723111531545
C        -4.96089069342872      -0.03271366641604       0.80838953094318
C         3.00885724342371      -1.20451823417483      -0.22422476904924
C         3.01857212596175       1.15714612700668      -0.17740780040904
C         4.14572020259555      -1.25686320899138       0.51204024220978
C         4.15565575725686       1.17090785367316       0.56015638350130
C         4.90565074391666      -0.05115943072444       0.79359335369048
H        -1.50423035455340      -0.87132431623085      -1.42499510158382
H        -1.50088793987080       0.89968818022948      -1.38213711955215
H         0.16755112152929       0.84986784485447       0.50912585922974
H         0.16362470181169      -0.91957487564103       0.46651077917025
H        -2.34283576513943      -0.92703560434281       0.94575144791947
H        -2.33916899893225       0.84298285048558       0.98894044848354
H         1.04189076762830       0.90640167408190      -1.85447892505913
H         1.03766826950907      -0.86529279810923      -1.89780973448126
H        -3.99944906564411       0.89215852897941      -0.89674183515844
H        -4.00323473351470      -0.87729883861915      -0.93981368805168
H        -4.87360402589184       0.84081572583558       1.47432613599642
H        -5.96800047679812      -0.01976128348291       0.36470844114430
H        -4.87738203539604      -0.93776540836850       1.43125818740061
H         2.45994643595439      -2.09813255777477      -0.51770722205627
H         2.47719230903563       2.06620456594382      -0.43567086611799
H         4.53812991411205      -2.22517596357241       0.81963551610851
H         4.55611629616475       2.12306801225734       0.90581139745714
H         5.51872639019530      -0.07156753615371       1.69773721779803
Cl        6.51082636234819      -0.03191592072186      -0.51496109023476
