23
C7H10BF4N optimized with ADF in AMS.
N        -0.28355720856483       0.22902896979054      -0.56201252876567
C         1.16538562467051       0.53745773456506      -0.72146060632020
C        -1.20562061730397       1.09013274307489      -1.03225424274195
C        -0.64313606916520      -0.85949179368368       0.15895160179962
C         1.76168429370516       0.98529474800382       0.60231965722749
C        -2.55522838966253       0.86206151597744      -0.80148410729493
C        -1.96969988608606      -1.12547294938368       0.41248766370255
C        -2.94616228593602      -0.25039028982791      -0.07552249665933
H         1.64051381308926      -0.37025883264877      -1.12610260928474
H         1.22928169491659       1.34975753158244      -1.45627970359635
H        -0.83840194286946       1.96386672620614      -1.56793575397786
H         0.17050159209171      -1.48712404772150       0.51576769207638
H         1.20484636931812       1.85816761569640       0.97045099691910
H         2.80932105364686       1.27336410917291       0.43551838424624
H         1.73844660187393       0.18304565592831       1.35600107659853
H        -3.26362439547634       1.60520564755065      -1.16659367349894
H        -2.23439869087534      -2.00506611054262       0.99841665644896
H        -4.00165057605593      -0.43872230147364       0.12917856835552
B        -0.64466840479044       3.91033825450425      -0.11237970321380
F        -0.42044769058241       5.12722329104436       0.52062450086586
F        -0.84383635375746       2.85683230837308       0.85964170384176
F         0.49292553941434       3.52663149247371      -0.92009302621929
F        -1.78837247920050       3.93891602513780      -0.96713101080896
