38
C10H20F3NO3S optimized with ADF in AMS.
N        -1.24946436105905      -0.24968233687209      -0.59113360148387
C        -2.28970780025064       0.65248885438884      -1.24975706130186
C        -0.57252143843029      -1.08143829742355      -1.65725298145767
C        -0.22941312795076       0.67632778326884       0.06988088826077
C        -3.28416024043947      -0.10952098237679      -2.10768348149371
C        -1.56146975047586      -1.89947983311641      -2.47493650791683
C        -2.59156929043022      -0.99009208703585      -3.14813915694233
C        -1.89143658165104      -1.13661421827682       0.44113200435484
C         0.75511022090213       0.00704239260453       1.01122795332221
C         1.59466490594845       1.08763261980920       1.69744332279436
H        -1.70580260510050       1.36074106168369      -1.85998756387697
H        -2.78484724453129       1.20924891927607      -0.44082780197560
H         0.17247291139413      -1.71106249433610      -1.15128243059822
H        -0.04144901279056      -0.36642396439567      -2.30663390406090
H        -0.81975674322723       1.43261717127120       0.61037380545731
H         0.29512477599257       1.17594125444460      -0.76114777446410
H        -3.92626876434510       0.64524763525168      -2.59048837471515
H        -3.96012703802959      -0.70636090829912      -1.47284198229699
H        -2.06141180561724      -2.64808238051610      -1.83734170956040
H        -0.98506297693225      -2.46832885810391      -3.22311975493446
H        -3.33012802496124      -1.58901748433951      -3.70387762616139
H        -2.07700527620685      -0.34931744055941      -3.88778920757881
H        -1.20621870849174      -1.96343165065901       0.66200441608594
H        -2.09384339401480      -0.54251235242231       1.34247637249740
H        -2.83328466246627      -1.52663792896994       0.04656357103440
H         0.21073586907232      -0.54560402454317       1.79123116932273
H         1.41131640656317      -0.69931376189060       0.47430293713962
H         2.13139415000678       1.71013782890003       0.96459455154821
H         0.94262757009060       1.73686435475577       2.30149480851036
H         2.33876970018862       0.62906496278262       2.36385935765819
S        -2.96275294301833       1.84879058382787       2.16970018187936
O        -1.91212823694281       1.09421488909490       2.89025916663480
O        -4.02836280706556       1.00678653079078       1.58793137565794
O        -2.44230589530168       2.89188032644333       1.26033408327804
C        -3.83630902304515       2.81188334454902       3.51901504083401
F        -2.98927532079939       3.68960398381882       4.11802297969586
F        -4.31984148256299       1.97510549705448       4.47455945124860
F        -4.88059056892088       3.51629917222008       3.00919481080432
