54
C14H26F6N2O4S2 optimized with ADF in AMS.
N        -1.94176353523760      -0.54108446860033      -0.02900954352965
C        -2.35524698207554      -1.74941806964368      -0.85626633921306
C        -3.01499518142712      -0.52294128181200       1.04292032580594
C        -0.57938045931666      -0.73723538553372       0.59828138607622
C        -3.88353045203363      -1.68911258282577      -0.91533962718413
C        -4.31529956980590      -0.85228491724825       0.31754118288586
C        -2.00543089876467       0.70433274177453      -0.88789022143236
C         0.55724782946849      -0.88627221434802      -0.39305511151932
C        -1.54085681210763       1.97385461205446      -0.20172482667041
C         1.87045597940670      -1.09804436971979       0.36588950840677
C         3.00418142062048      -1.55056231655222      -0.54966793891330
C         4.30187055576855      -1.80150571690867       0.21426377506182
C         5.43051210458540      -2.29641884484236      -0.68586048476999
H        -2.00751605048340      -2.63121055051456      -0.29469198111627
H        -1.85264080215294      -1.70593846795102      -1.83052777732002
H        -2.99410304434508       0.43777016918677       1.57146575287801
H        -2.75969182627655      -1.33448852995424       1.73602117913220
H        -0.67284123736544      -1.65510833490246       1.19510450824386
H        -0.42218244356345       0.10704175149129       1.28666881776274
H        -4.28576709220731      -2.71032884942419      -0.86835740180581
H        -4.23821470365186      -1.23041137029151      -1.85042863390823
H        -4.85871839378947       0.05582265340438       0.01615644075120
H        -4.96491585447102      -1.42757451355276       0.99154160316142
H        -1.39007873991706       0.49597602257932      -1.77431022391396
H        -3.04958180956671       0.79490530014025      -1.21708534936855
H         0.37701596140406      -1.77411081380789      -1.02133320373215
H         0.64918143357188      -0.00512547811542      -1.05244650824503
H        -1.71630214961744       2.81603801080010      -0.88754015467952
H        -2.09713695299883       2.18391488042007       0.72314582811861
H        -0.46660083396772       1.95157410051023       0.02766526268009
H         1.71827251698200      -1.86941696996669       1.13980590307097
H         2.15426993894069      -0.16566383572510       0.88943139977871
H         3.17735635597727      -0.79746648472033      -1.34231173483613
H         2.69286818050320      -2.48496584886394      -1.04999739227056
H         4.61219379096607      -0.87201816318643       0.72612389392666
H         4.10448479959492      -2.54568630675290       1.00616356877287
H         5.66028976774640      -1.56145330382568      -1.47476678808512
H         6.35193676781118      -2.47622641201695      -0.11139504208043
H         5.15010752414740      -3.24095865265165      -1.17880629034228
N        -1.29850296652199      -4.01182644614102       1.26919035962831
S        -2.33190658916270      -4.27902289872803       2.47309846986958
S         0.22315704800930      -4.55282198932083       1.15826650079081
C        -1.68889143202487      -3.35164789881182       3.99527665287614
C         0.20440236365489      -6.44961048476247       1.08062440082549
O        -3.52764578375533      -3.50377830755230       2.12649421552499
O        -2.44966193356372      -5.66054619362668       2.90904290804438
O         1.05374565809168      -4.24244488995476       2.31746696652949
O         0.67219083247677      -4.15687356483419      -0.17605751186128
F        -2.71056218980189      -3.20238802832446       4.87264030417483
F        -1.25515556492961      -2.10185704397301       3.64263870818404
F        -0.68366116153893      -3.99689051894777       4.60650694357916
F         1.38523684608689      -6.84965223671626       0.54828997714074
F        -0.79927534188718      -6.89061817607449       0.28974041154643
F         0.08097486731504      -6.99233419493477       2.30507332356919
