63
C17H32F6N2O4S2 optimized with ADF in AMS.
N        -0.74434110714519       0.49265621153344      -0.56774585103776
C        -1.36372671837442       1.71234185456957       0.09176860720579
C        -1.54883504923713       0.17164748740463      -1.82238401902438
C         0.66419683024029       0.85191789320235      -1.02628952852825
C        -0.72478365346280      -0.66426084617620       0.40706843165154
C        -2.84371648365980       1.54063156823509       0.40151193689485
C        -3.01922312238405      -0.05669068580994      -1.52899674729638
C        -3.63692783954916       1.16603110741519      -0.85046315326726
C         1.70449106443567       1.02505584814337       0.06434634798280
C        -0.10818835387186      -1.94096810743771      -0.13511945198926
C         3.00831322528468       1.50962635465407      -0.57900516285061
C        -0.04839374720562      -3.01931879814060       0.94849038706474
C         4.14464807038272       1.66199249848326       0.42716718518710
C         0.56727051483746      -4.31622077072078       0.42398865079788
C         5.43065024728115       2.14776002712256      -0.23638311725568
C         0.63644822201951      -5.41376331180285       1.48143761058115
H        -1.21315597672021       2.53391298618927      -0.62636591394932
H        -0.77947402592939       1.92180779146458       0.99873934034721
H        -1.06830838538782      -0.68612984458054      -2.30737367163677
H        -1.40661675691954       1.03594180894513      -2.48934754684024
H         0.54774432592338       1.77784776141685      -1.60456572632074
H         0.96792744970997       0.06946653294668      -1.73201096596229
H        -1.76236059284511      -0.84477878914423       0.71287772487148
H        -0.17585817479880      -0.30760033739876       1.29175608817433
H        -3.19911633903074       2.49868959412307       0.81730432081393
H        -2.99293616281989       0.79026167596819       1.19646020270826
H        -3.17102959691306      -0.96285814225538      -0.91596159652339
H        -3.50770557323756      -0.25349595071153      -2.49756146603369
H        -3.61814135462894       2.01386054055522      -1.55842551051718
H        -4.69135868501134       0.97923389479818      -0.59210016515025
H         1.38096763415043       1.76239337982596       0.82012990537288
H         1.89686595204495       0.07403888723050       0.59089223484901
H        -0.69605671243527      -2.32116175388576      -0.98582776039060
H         0.90907797847433      -1.75504745710471      -0.51279862159507
H         2.82839653987424       2.46924750617782      -1.09415991694401
H         3.30730283316605       0.80288114698675      -1.37240482044861
H         0.54385146399478      -2.65288383288775       1.80796869340048
H        -1.06540490254767      -3.22396292704439       1.33199107891278
H         4.32666260868566       0.69200528954038       0.92642728515156
H         3.84314619220207       2.37090036041473       1.22091946598074
H         1.58093186050114      -4.10322875653741       0.03997886544411
H        -0.02128212682207      -4.66917360004761      -0.44173478752689
H         6.24649522833398       2.25204960922327       0.49423187254559
H         5.75798079241356       1.44283616260208      -1.01693114709737
H         5.27611494240912       3.12567886116198      -0.71897981557886
H         1.08349148972098      -6.33054149986016       1.06830117479056
H         1.24773647459149      -5.09879343316323       2.34214917584369
H        -0.36765155017643      -5.66798860326430       1.85632318144473
N         0.04926476840430       0.67234585627044      -4.63929184663655
S         0.65391105520704       2.12918735377069      -4.31763600756413
S         0.85698479231993      -0.43856507624206      -5.49393966261996
C         0.65265516148535       3.12942863920295      -5.94655678105104
C         1.79216154990612      -1.42538283680308      -4.17677008173948
O        -0.36370629036230       2.79816325431001      -3.48995948689304
O         2.04278537943674       2.17852553749629      -3.86527467336798
O         1.90484295743822       0.07848529056807      -6.36169687753490
O        -0.11082566291529      -1.41545871007971      -5.96833475177470
F         0.41145644705169       4.43048918604373      -5.64411797807521
F        -0.31065298005340       2.69707458521754      -6.78905152680007
F         1.84613814230010       3.04681396450426      -6.55892180545407
F         2.43987357393578      -2.45902454357421      -4.75666612540871
F         0.92455784681486      -1.94741794074627      -3.24715318281434
F         2.69828642716712      -0.67735559229900      -3.49935343551817
