34
C10H22ClN optimized with ADF in AMS.
N        -0.08338769694490      -0.00236724095256       0.02742160840509
C        -0.97011430792289       0.40472230835173      -1.14514471877224
C        -0.64585259387178      -1.28278946686722       0.63828570472472
C         1.28020835122901      -0.31428823175449      -0.56947982361145
C        -2.43245741306487       0.54963015965659      -0.76454932979430
C        -2.11219514217165      -1.16692948833819       1.02150724720273
C        -0.00883711904113       1.07132243096270       1.08396381711448
C        -2.96033468082515      -0.76246583601959      -0.18339634822447
C         2.34382140412121      -0.74162069103663       0.42400368286494
C         0.64735483062330       2.36297617733047       0.63725674796428
C         3.64362084614488      -1.02418175366925      -0.33100114828050
H        -0.84550958423682      -0.42921053883112      -1.87301744918085
H        -0.54274513787499       1.32958132087915      -1.55683838160721
H        -0.01676607071637      -1.51407011288725       1.50862335768038
H        -0.51705525133637      -2.04568818031696      -0.16263343884971
H         1.58940364614994       0.58878293719327      -1.11696269565810
H         1.06952139182988      -1.12121640716865      -1.30741546450270
H        -2.97588892300914       0.81072410285538      -1.68854984899922
H        -2.59805457778671       1.38539083322315      -0.05957694967206
H        -2.26448643135845      -0.46312531432562       1.86017380240396
H        -2.41619409133374      -2.16084702536689       1.39221762472205
H        -1.03765479094811       1.25634669670003       1.41459898812481
H         0.53452579831950       0.62783917475794       1.93068784967438
H        -4.02031979375526      -0.66557549865996       0.10172504496054
H        -2.87524035273014      -1.54844037668264      -0.95484154220269
H         2.52507514717703       0.02761945957151       1.19408434880200
H         2.02898063007094      -1.66100053857433       0.94121691561775
H         0.60526381440188       3.07947066141321       1.47124033471233
H         1.70374630406531       2.22359150734939       0.37131263573677
H         0.12703427374635       2.82141567810027      -0.21478221759624
H         4.43230724589749      -1.36320573952336       0.35673073593756
H         3.48369461746594      -1.80675198437235      -1.08734895952878
H         4.00797363808801      -0.12174524411591      -0.84621224988274
Cl       -0.34559118470222      -2.62726671598181      -2.38097933758555
