42
C12H21F3N2O3S optimized with ForceField in AMS.
N        -1.28589154252435       1.29861130364231      -0.24276623195681
N        -2.68842656404610      -0.38945310878208       0.11662545406740
C         1.10081824874092       1.93326463598862      -0.21514266678312
C         1.59607454663732       0.48888946904918      -0.38207694418230
C        -0.27055869268730       2.14217148830279      -0.87052224005046
C         3.00593675126302       0.31080582220721       0.19187149045937
C         3.47096859798017      -1.14402389795899       0.05198836063536
C        -1.82340779426768       0.17197421754756      -0.74998074491534
C        -1.82577025891576       1.45292748362333       0.98328947709217
C        -2.69705982724293       0.40586144630455       1.20594898918539
C        -3.40034142933136      -1.65308529771418      -0.05326521960596
C         4.88456504359172      -1.32964672214386       0.59504051390984
C        -4.86881426811624      -1.39691386830418      -0.36605371585091
H         1.82601827155532       2.62892997606973      -0.69112930982690
H         1.03774981935179       2.18804649171703       0.86533920702810
H         1.60370941068078       0.22411124815479      -1.46251243075173
H         0.90285618728740      -0.20176552514207       0.14582195970573
H        -0.56976165072830       3.20854070896729      -0.77586815380022
H        -0.20032345167696       1.91078930813381      -1.95631971529041
H         3.00439018547334       0.59412241287249       1.26764604777242
H         3.71120799876762       0.97867334047628      -0.35027755028696
H         3.45657159904636      -1.44189092805431      -1.01929951020531
H         2.78070899782757      -1.81242818843348       0.61183705189891
H        -1.56858788484733      -0.24524666591352      -1.71634167458059
H        -1.58909377921086       2.25463912980683       1.67099742255673
H        -3.27232035878056       0.22410155222545       2.10461568524858
H        -2.95010216523774      -2.23385113016525      -0.88787035223947
H        -3.31164134667535      -2.25998040789921       0.87388470063733
H         4.93106569157253      -1.02987710130597       1.66350986739081
H         5.60503012265178      -0.71877783140404       0.01094165789116
H         5.17617004454163      -2.39815906331837       0.51245116210003
H        -5.34840997749820      -0.84107104545232       0.46700300745996
H        -5.39502858720772      -2.36502584887001      -0.50309442884694
H        -4.95844837562468      -0.80513795750949      -1.30191929002090
S         5.83159380720318      -3.53507990641694       4.32267307145015
O         4.67761102388154      -3.26850949110620       3.34493088554915
O         5.10454004341558      -3.87901587379630       5.63133294854590
O         6.39130327625123      -2.13042440852211       4.59379793935337
C         7.04930770324503      -4.76286486195790       3.76800208869579
F         7.68533857030250      -4.30268242541580       2.63102287640430
F         6.40871733491396      -5.95386681093765       3.48499298112873
F         7.98385983473713      -4.97039857356503       4.76434282882763
