43
C11H24F6NP optimized with DFTB in AMS.
N        -0.68003041498347       0.57736605141650       0.08189623010712
C        -1.70326763237403       1.48947141526931      -0.54048861018919
C        -1.04502213296833      -0.84266037935240      -0.23351189417894
C         0.63909202386788       0.89714177886224      -0.57831476511946
C        -0.60333850257109       0.76202712817795       1.57278681011678
C        -3.12790494072177       1.17577676681122      -0.11377918776130
C        -2.46521697741457      -1.21165011697411       0.18431623630283
C        -3.48789871871616      -0.26972824421603      -0.44887675985897
C         1.83920200472996       0.09939305533305      -0.08146100229813
C        -0.14961158099144       2.14180090336956       2.02555234796837
C         3.08477069935046       0.57420324196980      -0.84387878854658
C         4.33531672832625      -0.16180836140693      -0.37001237367870
H        -1.60448208756749       1.37711320397438      -1.62209985678116
H        -1.43990423768659       2.51344589668394      -0.28217647748722
H        -0.32634668029165      -1.49372018127951       0.26822469844581
H        -0.93561201569418      -0.96160934114682      -1.31503322344826
H         0.81359611504340       1.96232845502310      -0.43107203504741
H         0.49690782759198       0.72790924654094      -1.64767390254437
H        -1.59685547334676       0.55793000563106       1.97535357817350
H         0.07851254759404      -0.00288287747431       1.95260159807650
H        -3.78284861519472       1.85944557273997      -0.65949409490688
H        -3.26970109692111       1.36347904194564       0.95414565731615
H        -2.56136699075286      -1.19630340874662       1.27350817774617
H        -2.64464230673950      -2.23765213399249      -0.14851570467696
H        -4.48661602192290      -0.50579349077111      -0.07435734511332
H        -3.48850336947716      -0.40639674625374      -1.53486892298989
H         1.69902562343226      -0.97252423237323      -0.25093499004878
H         1.99662932531712       0.25660541058848       0.98913369273280
H        -0.16040236178917       2.14756529874991       3.11554077770038
H         0.85890098066536       2.37035807128909       1.68968253894493
H        -0.81644557408085       2.92319204470747       1.66954179946722
H         3.21201231711188       1.65010886510246      -0.69150920765221
H         2.94056249685053       0.40183154971278      -1.91493496776789
H         4.23066376581497      -1.23683304873206      -0.52440533574007
H         4.50936928591215       0.02212306339048       0.69106572096768
H         5.20261619592836       0.18710193058981      -0.92991007548325
P        -0.07644697728242       4.51353191349690      -1.80104786445516
F        -1.69882220823567       4.31716558658992      -1.50526715861607
F        -0.12451553622285       6.01914066351284      -1.19209019521340
F         0.21759713606789       3.90444925081192      -0.24364217025759
F         1.53766943949154       4.60442603286991      -2.03701213130257
F        -0.04217713766547       2.92314954388310      -2.36148182978040
F        -0.38510378338387       5.03926337907567      -3.30577189342213
