47
C13H13F18N2P optimized with ADF in AMS.
N         3.29670842908475      -0.98193625865681       0.65022592904404
N         2.16711076581653      -2.72843416900122       1.27234872836313
C         3.76504867019028       0.15935346082177      -0.14509114714106
C         3.11566703323941       1.46697267046599       0.29378256357299
C         2.33207361909612      -1.83457698501430       0.28930195903881
C         3.76681267011155      -1.34380627507913       1.89536344705613
C         3.06368268444240      -2.44520807487691       2.28264012895591
C         1.60215524392700       1.47798118862094       0.11336070989534
C         1.34375866060704      -3.93244088908343       1.18088250859205
H         3.53847644775181      -0.07407800769819      -1.19522404592806
H         4.85959568422664       0.18300180027514      -0.04713471494828
H         3.37950127405705       1.67390495568764       1.34605922053202
H         3.57684652413328       2.26718722331628      -0.31005253185724
H         1.82803376413189      -1.84588481632494      -0.66844959887311
H         4.57561519946409      -0.81146375220808       2.37972880218955
H         3.15085426849618      -3.07118360463871       3.16195043287507
H         1.11503120916750       0.71687957717486       0.74287855465891
H         1.32977359258061       1.28414356243313      -0.93691720623711
H         1.18202245143765       2.45498699130768       0.39410295209648
H         0.53096673653454      -3.75418457734383       0.46831601457625
H         1.97192285077479      -4.76222294312171       0.83271999711052
H         0.92231360975061      -4.14879998972363       2.16961863132960
P         4.89240994545075      -4.54205679801488      -1.64082181987858
F         3.81977685903493      -5.72785989329847      -2.10073175263562
F         3.59631425374390      -3.66139843518910      -0.98512882660796
F         6.19367160380419      -5.35782373762406      -2.25600697065302
C         5.09570087391043      -5.52976552134111       0.07848514016446
C         4.54392835643190      -3.76557609324022      -3.43734844724030
C         6.05825049282847      -3.02468482809844      -1.01122658253350
C         4.58705924717331      -7.00671038159398       0.14040414297109
C         3.18067355518502      -3.05050727357617      -3.69656406128957
C         7.58715608048656      -2.98714630613784      -1.31632696256754
F         4.41802767661341      -4.91692323565772       1.13437772809105
F         6.41608591129727      -5.58884654252274       0.44605295929108
F         4.57706786368442      -4.79129486815704      -4.35434834149710
F         5.50143246541537      -2.86384318413541      -3.84692124051946
F         5.97200907669530      -2.90809456981069       0.36781928685330
F         5.55554063971738      -1.82748277331656      -1.49904461767401
F         4.97141857982141      -7.55788163756297       1.33031666223704
F         5.08905271712996      -7.77054006609658      -0.84598820388246
F         3.22700632076154      -7.06433121690827       0.10500450476864
F         3.08393100226879      -2.71016447707908      -5.00795601502021
F         2.11692641532587      -3.82822685935401      -3.39102790135234
F         3.06051675323383      -1.88639870168296      -2.98047689862421
F         8.10613184249605      -1.82004505081363      -0.81424602627765
F         7.85029418065927      -3.01226985171675      -2.63702745111853
F         8.23768050620897      -4.00794086510389      -0.72284061510654
