49
C13H28F6NP optimized with ADF in AMS.
N        -0.17946030961046       0.53942658141974      -0.09250243053425
C        -1.28974686143099       0.99376334560880      -1.01384815858071
C        -0.71565145121094      -0.54668202555897       0.81843653734462
C         0.95253588974372      -0.02948638971084      -0.96223292796012
C         0.35597917341564       1.69865165456647       0.75701503905085
C        -2.52103624881329       1.47421512283579      -0.26262435067797
C        -1.98466309837248      -0.15189329298602       1.56372421426064
C        -3.07420514939411       0.35529011993960       0.62022863207758
C         1.91950065337766      -0.96858544440775      -0.26004534346418
C         0.58925556552138       2.98959550090864       0.00260955803830
C         3.14843172678181      -1.21966263458640      -1.14128916467929
C         4.15428112682162      -2.14710251407099      -0.45895342912302
C         5.44659879233939      -2.30823458310088      -1.25764718192493
C         6.45757206545137      -3.22284158297901      -0.56709704622017
H        -1.54559843602138       0.11729967332155      -1.63075242850135
H        -0.86436384996345       1.76272703576057      -1.67273088256202
H         0.09561120180531      -0.80140723291851       1.51300080064306
H        -0.90605555152015      -1.41542444778317       0.16795496919697
H         1.49298853223030       0.84537225235801      -1.34874823186635
H         0.45511320272678      -0.53873808537865      -1.80305496826377
H        -0.37423195463497       1.85392442170420       1.55976013584596
H         1.29071020766549       1.33645659239448       1.20681881963530
H        -3.26517954991229       1.79521021490632      -1.01050100521373
H        -2.28523393908649       2.36487352809454       0.34300032835589
H        -1.76250808969331       0.60555523175232       2.33287109505743
H        -2.32244468377761      -1.04609563021784       2.11301469320432
H        -3.94745767144685       0.70452936249070       1.19300672136408
H        -3.42350997328889      -0.47437094860784      -0.02156010849503
H         2.27338777289907      -0.52727696350573       0.68424191561662
H         1.43167780416428      -1.93378675628004      -0.03992330177121
H         1.23960229957305       2.85961599540210      -0.87270751921513
H        -0.34425854005331       3.48891471891571      -0.29491565616192
H         1.14527464787723       3.65084719461672       0.68414053648652
H         3.63756865999266      -0.25105518694678      -1.33655049999875
H         2.84135023701293      -1.64882133318204      -2.11416130759529
H         3.69596311459775      -3.14081052786626      -0.29152714664066
H         4.39949329560180      -1.72602106769150       0.53149356394151
H         5.21387970592253      -2.70215319518304      -2.26450063664075
H         5.89428466164933      -1.30901241114509      -1.40233641474139
H         6.04335662959045      -4.23340847298743      -0.41601872090189
H         7.37971301422406      -3.32183374657090      -1.15999169931646
H         6.73382546485227      -2.82083064612083       0.42066975559773
P         4.22348144387300       1.93381341018019       1.45028585263707
F         5.18354946804649       0.68243126145084       0.96878272283944
F         3.36604330941578       1.79346217246452       0.00393993697407
F         3.15160573129894       0.81722862322218       2.13474828483644
F         3.17848898053991       3.14334559392840       1.90738676766560
F         5.01528552897162       2.04443069252231       2.87509184273317
F         5.21918280674738       3.02440780692180       0.74550318454716
