33
C7H16F2N2O4S2 optimized with DFTB in AMS.
N        -0.47622042375440      -0.12597249405201       0.28306021770893
C        -1.42045537456055      -1.14582721798317      -0.27904413445657
C        -1.40203385853807       0.88093088107024       0.89918593401453
C        -2.59683476819282      -0.34048085251822      -0.82738452862374
C        -2.55384426072985       1.00874850209735      -0.09266183378207
C         0.45153593622193      -0.67950667942218       1.32544017093648
C         0.30883591051076       0.50638828054701      -0.80770986984480
C         1.21886347692455      -1.91028274004783       0.87186047926839
H        -1.73790851217734      -1.78846337725471       0.54330830311846
H        -0.90972451337561      -1.73966078907530      -1.03665247971357
H        -0.86270025110707       1.81078336399644       1.08137806225297
H        -1.75565521080781       0.46032768940432       1.84336723474362
H        -3.52619838368245      -0.87273453889313      -0.62138233043732
H        -2.51075731822699      -0.20096515470317      -1.90724773723058
H        -2.38454585920117       1.83190009347421      -0.79075120382090
H        -3.48286558743479       1.19649403637783       0.44584300895106
H         1.13545726949623       0.12948297602821       1.59650477168566
H        -0.15597765732638      -0.92991586529214       2.19422335407275
H         0.92629683443506      -0.24849089983967      -1.28940371477853
H        -0.37017738214540       0.93880959416851      -1.53839799527962
H         0.93978987112009       1.28607859826408      -0.38426398689939
H         1.88108214519390      -2.20249903371939       1.68615527790618
H         0.54043267494835      -2.73818473530896       0.67613844860986
H         1.82324639846304      -1.71836043662525      -0.01379117208268
N        -3.57330846511859      -2.69501093223452       3.46189390226925
S        -1.99740450348233      -2.62137322318355       3.53014791771600
S        -4.25908627379274      -1.97641824329766       2.22486287870978
F        -1.65401843681431      -1.01029175139891       3.68895020158168
F        -3.76032659287854      -2.82728198912665       0.91487817378276
O        -1.55539133674063      -3.19594529986540       4.75134747689286
O        -1.28790950683024      -2.95141862902241       2.32025165040081
O        -3.78036741616138      -0.65244835536915       1.92754530163870
O        -5.66022978093455      -2.19858238869484       2.28321947248906
