69
C19H36F6N2O4S2 optimized with ADF in AMS.
N        -0.08333532854654       1.73919761907385      -0.93256141168713
C        -0.58479122744531       2.21249753291006      -2.29668278033914
C        -0.10976891239843       2.89936626333930       0.04085416852339
C        -0.96039098858124       0.59853144828037      -0.41227630120113
C         1.35201132367458       1.28237478563022      -1.11157869393134
C        -1.92449746896272       2.92324417378609      -2.23686831540947
C        -1.46695910567320       3.57613399622692       0.13181770345585
C        -1.91494480191847       4.07764627764336      -1.23938848046176
C        -0.69590489269475      -0.75205397350051      -1.04631348099101
C         2.04628958751813       0.79123739655215       0.14931921203458
C        -1.79956418844915      -1.73850428222365      -0.66084896701022
C         3.35893952788732       0.09255277525350      -0.21675858984648
C        -1.52557814197151      -3.12846513356851      -1.22973103643899
C         4.12806259207741      -0.39563887243889       1.00885875655749
C        -2.64978666098156      -4.11559393319033      -0.93041568513937
C         5.42057135010171      -1.12659918931947       0.64920881906696
C        -2.37908855475482      -5.49901384347863      -1.51586638708238
C         6.18592956390631      -1.61098296576887       1.87785304834921
H         0.20133416814384       2.88423675075731      -2.67802074726149
H        -0.62530017776852       1.32731587381376      -2.94333312580237
H         0.21847944769552       2.50619061033348       1.01233403987929
H         0.64795759276509       3.61377623623864      -0.32354425078174
H        -0.81060268709564       0.56863273347609       0.67811313398861
H        -1.99754998736054       0.89788452691509      -0.60852457455822
H         1.32392192844049       0.49704594535558      -1.87716786380122
H         1.88957425218111       2.14313149537837      -1.53964961470539
H        -2.13756327036126       3.26683879799966      -3.26211291966696
H        -2.72820421894886       2.20523286382138      -2.01129742614554
H        -2.21410817250165       2.88345055964275       0.55472854383358
H        -1.36777204674037       4.40725068704017       0.85013616223044
H        -2.91486336580237       4.53427218435724      -1.17303359481395
H        -1.22089316786535       4.86875883452139      -1.58074581758739
H        -0.70326368736115      -0.68044509853891      -2.14485634599447
H         0.28150693639265      -1.15538725765262      -0.73330103592341
H         1.40683483156607       0.07813333968560       0.69504189625465
H         2.26050382066158       1.62960927943265       0.83373089173604
H        -2.75509712576709      -1.36374352601352      -1.06765256984376
H        -1.90080020687707      -1.79394363333632       0.44059805757193
H         3.99657542718351       0.78203657364908      -0.80068360407884
H         3.13936291007692      -0.76466909906204      -0.87904501227865
H        -1.39099789013323      -3.04329348404794      -2.32183112370116
H        -0.57344354694672      -3.51844287713000      -0.81979198024073
H         4.36410684524208       0.46436424634539       1.66411580815140
H         3.48156832308421      -1.07098606361726       1.60097384647032
H        -2.79537072032912      -4.19168914569663       0.16371808521482
H        -3.59251320122760      -3.71515877538498      -1.34600828101415
H         5.18002853087550      -1.98621224332841      -0.00240951360464
H         6.06326404147036      -0.45461396538781       0.05134824132860
H        -3.20102352980436      -6.19801510855743      -1.29872633110300
H        -1.45071375957820      -5.92637555593142      -1.10194157818293
H        -2.25921882277348      -5.43891554421337      -2.60912899721158
H         6.46429776010145      -0.76607995664490       2.52841427078747
H         5.57402413379743      -2.30677824331789       2.47459949510422
H         7.10995445644180      -2.13573000417534       1.59270697771998
N        -1.82300529772139      -1.05255730311622      -4.09090196437984
S        -0.84596398858245      -1.56420721041299      -5.27191455466597
S        -3.01535036086842       0.01736111654051      -4.27018260700920
C         0.58207194373760      -0.31958435117142      -5.28941071344501
C        -4.40663242282890      -0.81797302955871      -5.25661402984577
O        -0.19133427715438      -2.76821390448673      -4.77851609304253
O        -1.38680268533772      -1.49260676508012      -6.62055748900489
O        -2.69342796460221       1.21542825448648      -5.04402886565212
O        -3.59429049454608       0.17965418142898      -2.93198056647469
F         1.48379837744154      -0.68357447526075      -6.22700182799351
F         1.22808608665536      -0.30130860514088      -4.07594475407684
F         0.17837397916259       0.94609458051177      -5.54784985072484
F        -5.55391094143473      -0.13339985466102      -5.01312092393277
F        -4.57569835592808      -2.10066279650592      -4.86139112720040
F        -4.16697982545751      -0.79056776970675      -6.57835904207047
