37
C11H23NO2 optimized with ADF in AMS.
N        -0.98293725772456      -0.10756330768053      -0.01248242164744
C        -2.25890064816978       0.28865661835608      -0.74665333733578
C        -0.53072522754062      -1.47293325179238      -0.46128237530182
C         0.05191833750661       0.94467343812820      -0.38941421854821
C        -3.35501378818087      -0.75715265964243      -0.63877130233848
C        -1.61305917151712      -2.52875497082523      -0.29252861708799
C        -2.87469644065438      -2.14487872743513      -1.06677461993003
C        -1.21215258229305      -0.06105700978102       1.47580605889267
C         1.37764777229150       0.85042208959271       0.34066696254576
C         2.21658690690792       2.07545065258216      -0.02776264470120
H        -1.95601151335070       0.41508246893733      -1.79927425874534
H        -2.52354749843873       1.28279808647093      -0.32142062007446
H         0.37514810133186      -1.71775702656666       0.11133777732473
H        -0.25640349403657      -1.36991102711997      -1.52433270268953
H        -0.43747323806657       1.90128673090826      -0.14266028296935
H         0.18627969753436       0.85489553208125      -1.48008197009869
H        -4.18706734270314      -0.41584385805423      -1.27716078497554
H        -3.75965249412988      -0.79243509208557       0.38719880267853
H        -1.84485150668062      -2.66529122459343       0.77764036012297
H        -1.20384923440972      -3.48869826946504      -0.64984217617978
H        -3.66502171823662      -2.89727646187948      -0.91072541095198
H        -2.64548894687408      -2.13793554378306      -2.14911913543224
H        -0.41625129816809      -0.63696883898402       1.96487371697535
H        -1.15936536585433       1.01201333671001       1.77854561571898
H        -2.18439444266015      -0.50783159905402       1.70315298825991
H         1.19924960267102       0.87946787728059       1.42605018881175
H         1.92105247525724      -0.07714426064360       0.08935517887051
H         2.37930019085969       2.14396202563476      -1.11551453115543
H         1.69388064490851       2.98222483025967       0.31249503605100
H         3.19947631914702       2.03826366884180       0.46319327074520
C        -1.79704830166387       4.89237589480687       1.90733164839441
C        -1.57978250296565       3.45440932169267       1.42178232754277
O        -2.35485096847532       3.01918461984309       0.51399052675521
O        -0.61738556038673       2.81984056795238       1.95959552665248
H        -0.95017592520302       5.51408030565752       1.57595322194809
H        -2.72944944464985       5.31614999919849       1.51125447533816
H        -1.80344787648168       4.91870399535105       3.00725527833480
