25
C9H14ClN optimized with ForceField in AMS.
N         1.10677363027870      -0.00660315843001       0.49258084015747
C        -1.26382913098927       0.00825597828483      -0.15254028056034
C        -0.26686289156778      -0.03600933942637       1.00890831067403
C        -2.71052879814844      -0.01571152113922       0.35090924320157
C        -3.69541975930562       0.03226070768079      -0.81425702994492
C         1.74636146793923       1.19188260189412       0.32852657581372
C         1.72779967551617      -1.17647557825431       0.14897609120571
C         3.04558311337901       1.23793272303385      -0.18124543979965
C         3.02665611986161      -1.16576366557872      -0.36366178517148
C         3.68721166443414       0.05034225974487      -0.52751527114975
H        -1.08798745404992      -0.86691936531523      -0.81598187833482
H        -1.09187047081114       0.93602663224487      -0.74133313289536
H        -0.42909330967440      -0.95666339817312       1.61290373280674
H        -0.44189562984740       0.82850847440183       1.68797513018384
H        -2.89005125742428      -0.94379591768947       0.93635729348146
H        -2.89376734853135       0.85867635841286       1.01290255048255
H        -4.73493396908187       0.01440533143890      -0.42509145490437
H        -3.55198392526081       0.96391290956905      -1.40232436538746
H        -3.54940845302796      -0.84588698419744      -1.47894381662587
H         1.25069509998695       2.12103913045191       0.58346411095816
H         1.21815348138369      -2.12549779539600       0.26554589918833
H         3.54780074339850       2.18779581251438      -0.31159212663128
H         3.51425743942194      -2.09300036017034      -0.63588997729821
H         4.69207934720800       0.07314456186711      -0.92778103655898
Cl        1.40960580211232      -3.12467580686912       3.26239701340892
