40
C12H25NO2 optimized with ADF in AMS.
N         0.09919938889586       0.02969540795493       0.03498894178206
C        -0.79709791095471       0.64103562633079      -1.01805790846027
C        -0.48468344782592      -1.31209819983704       0.48072215129569
C         1.44919875137976      -0.21212888182721      -0.61581455211918
C        -2.23510459641075       0.80232958229263      -0.55414026972818
C        -1.94229001648067      -1.21460127172218       0.89750841865840
C         0.24389645776832       0.92509360315548       1.25844500246301
C        -2.82388001910575      -0.55043756249429      -0.15564330488910
C         2.52235559342697      -0.80569358267192       0.28077799153826
C         0.79330350208994       2.30506109395667       0.97130068147020
C         3.81014244768963      -1.01724509509568      -0.51375814752334
H        -0.75560701343339      -0.04702947873604      -1.87884317197919
H        -0.34512073734787       1.59572758003417      -1.32093219538770
H         0.13886931696716      -1.62420596768251       1.34526981708601
H        -0.35598949994851      -1.98088041779609      -0.38765944900053
H         1.77426165928051       0.75640787144479      -1.02756694151840
H         1.24794256498879      -0.88049979446317      -1.46926411123419
H        -2.80178218980944       1.25654865970329      -1.38455819349157
H        -2.28970640725986       1.50852244116632       0.29118975075196
H        -1.98872398632062      -0.70590214707380       1.87660034932567
H        -2.27552610278645      -2.24814551115012       1.09212322852003
H        -0.74105160506890       0.96919526838806       1.73556512259792
H         0.85409980432940       0.33257026180804       1.96463447166841
H        -3.84866249246599      -0.42193542458605       0.22783321666789
H        -2.89245995531940      -1.18881856742430      -1.05753744954502
H         2.71912125118915      -0.14937392496962       1.14069684453744
H         2.18329346111348      -1.75458252428626       0.71967860653124
H         0.86407880305201       2.82533004582990       1.93892503633553
H         1.80497059931960       2.28902941064183       0.53901089098333
H         0.14152199293118       2.91397649079414       0.32567087545770
H         4.58177579101930      -1.44949590363286       0.13962222792957
H         3.66115689772145      -1.70831553435656      -1.35897839788630
H         4.20294181965970      -0.06906409373186      -0.91585629465974
C         0.58683972494851      -1.85850825832172       5.25093387940892
C         0.28759985779205      -1.22879342221541       3.88276277781727
O         1.19066478335043      -1.40401654160088       2.98943531074955
O        -0.79865282134052      -0.60109046166507       3.74392557983005
H        -0.24699120329247      -1.71225425175041       5.95084958534929
H         0.78641968099411      -2.93387100761190       5.12582904840942
H         1.50320632256388      -1.41315755819810       5.66902939225792
