41
C11H24BF4N optimized with DFTB in AMS.
N         1.96795000217043       0.26497488510261       0.25434523558338
C         2.31835735022234      -1.18524865294698       0.28969574624605
C         2.99486837401980       0.86193430914300      -0.65632177931730
C         0.60306587872789       0.51263721833852      -0.32255829706384
C         3.84609169190398      -1.22588237567853       0.27414795502907
C         4.28637347657462       0.10873258966510      -0.35298541803867
C         2.10300831220850       0.86438943284073       1.61032435844024
C        -0.54895327053529       0.10121389258474       0.58597995209597
C        -1.86716773847012       0.37747361731184      -0.14729367767590
C        -3.06839081631198       0.04907367255163       0.74243105866179
C        -4.38586882900027       0.34948363896876       0.02104615046757
C        -5.59061419406701       0.02969331912731       0.90443959816850
H         1.90467008107490      -1.65328858796979      -0.60659628692224
H         1.88087878457918      -1.64964841527628       1.17353982582323
H         3.04291181470816       1.93608567737126      -0.47268162935286
H         2.66999515444804       0.68538939200345      -1.68393969934559
H         0.55922966658999      -0.03256600351298      -1.26991311254555
H         0.54204423033616       1.58296278622934      -0.52810108623557
H         4.19405662998596      -2.07919571444148      -0.31037694728552
H         4.24034402668967      -1.32578942451013       1.28751360399685
H         4.91513254366994       0.67132085787858       0.33971900553061
H         4.85403113852089      -0.05031374040608      -1.27129938612183
H         1.47647858660497       0.31563916953595       2.30902886262639
H         3.14242369497078       0.80280711804488       1.92424313439686
H         1.78314345921446       1.90389221643742       1.55983676755447
H        -0.47569707134330      -0.95777697559680       0.85639214936752
H        -0.53071333309019       0.70058862837974       1.49896989382721
H        -1.91171905637853      -0.21926983499885      -1.06538409723106
H        -1.89433175924837       1.43496129525980      -0.42796802616710
H        -3.01211904321147       0.64337508399371       1.66043297515480
H        -3.03804076729358      -1.00941748802031       1.02651518742963
H        -4.41168769574063       1.40722787553606      -0.25997881433332
H        -4.44157073179457      -0.24285964195135      -0.89899178916967
H        -5.56384730410045       0.62641356253359       1.81727594456732
H        -6.51532720392069       0.25237026116099       0.37132307153314
H        -5.59438857508601      -1.02613352824428       1.18042267169756
B         0.31689174566165       3.70545840150145       0.41314506310295
F         0.21867809938754       5.03728658439896       0.68356689468275
F         1.66045395941450       3.35893618804267       0.03202574669477
F        -0.52912619284638       3.29761754327493      -0.62846175297750
F         0.02340785705449       2.91162873433682       1.55136195210491
