23
C7H9F3N2O2 optimized with ForceField in AMS.
N         1.11333160183692       0.01074268492117       0.01425474497241
N        -1.10844606991740       0.00787927698614       0.02431464301310
C         0.00355884632158      -0.75288709209049       0.03701654136625
C         0.69112789770211       1.29024573692930      -0.01017649575876
C        -0.68985172480372       1.28844718114008      -0.00417653483072
C         2.49688992606490      -0.44560356731716      -0.00456337585522
C        -2.49106654498938      -0.45175976825240       0.01780002386918
H         0.00520966142261      -1.83654999987004       0.05529962976232
H         1.33834483514278       2.15784081054902      -0.03898078826851
H        -1.33969027503407       2.15426595162225      -0.02767645683034
H         2.54142383703297      -1.55553908801175      -0.00252142307670
H         3.00119907890604      -0.06829419228114      -0.91888609212330
H         3.02878699840957      -0.06146799052412       0.89102564363551
H        -3.01718517336693      -0.06588468376560       0.91599064712494
H        -3.00333891905318      -0.07867394871980      -0.89386303426903
H        -2.53297064229362      -1.56175020311421       0.02419358716954
C         0.53842287676609      -3.44274847631586      -3.06617245807591
O        -0.13434090470540      -2.47917288941000      -2.73572446908409
O         0.15661036084646      -4.56848025897210      -2.78893598034836
C         1.82349492520942      -3.25281559954501      -3.81464440046334
F         2.85850114627653      -3.84477923758976      -3.11433868980421
F         2.09928404665762      -1.90563634511987      -3.97351815122182
F         1.72131116356810      -3.84262234894865      -5.06110378930294
