41
C13H24N2O2 optimized with ADF in AMS.
N        -1.62464652308452       1.07643076285399      -0.31569467788055
N        -3.30776448129025      -0.08732687250182       0.42803778782903
C         0.84561269323056       1.38546455016464      -0.01424477888905
C         1.70398574146791       0.13278521351379      -0.19092600844324
C        -0.36637535008932       1.44251124897023      -0.96405043283199
C         2.88234341723165       0.09584682077202       0.78099770332578
C         3.72743357863219      -1.17095254200521       0.64934385232002
C        -2.17860175653498      -0.15098270705249      -0.30356668753845
C        -2.34003669802094       1.89461941547596       0.55194392274070
C        -3.38053777680841       1.16083763640010       1.02172741307616
C        -4.05122633753330      -1.26695524877924       0.86948527598319
C         4.89653304987519      -1.21035862130189       1.63243465155367
C        -5.50921668590975      -1.22825024104088       0.44054345823379
H         1.46322898874302       2.28719589994775      -0.17216996765080
H         0.47373219761909       1.42759164651670       1.02428429026633
H         2.08542954597117       0.09610534252379      -1.23017869563868
H         1.06573489688597      -0.75321741554067      -0.02305889837817
H        -0.51103784858447       2.45125668529036      -1.38055985827384
H        -0.22982986539161       0.75658225408238      -1.81424098180095
H         2.49471370578327       0.16230178067443       1.81434924418310
H         3.52604099771103       0.98466911317462       0.62988637483216
H         4.10889698488978      -1.24930597312574      -0.38568338236952
H         3.07560772579431      -2.04804808404809       0.80963589137073
H        -1.90982364200692      -0.95670037541638      -0.96941472174890
H        -2.02590655156228       2.90761615236242       0.76692446752449
H        -4.14069026607637       1.40087914127166       1.75274088267010
H        -3.52316744992207      -2.13561580881525       0.45243312887087
H        -3.91039072365954      -1.31447191988221       1.96205067975287
H         4.53503918645948      -1.16836667149456       2.67274726765682
H         5.57274747023787      -0.35312903050150       1.47944302742378
H         5.49119084092520      -2.13025016833587       1.52157044055523
H        -6.02883802577330      -0.34776591001642       0.84733059586115
H        -6.02975896921288      -2.12425106216426       0.80914796081980
H        -5.59850825436697      -1.20315049173002      -0.65617243597488
C         0.26280364253806      -1.93205766224506       3.03813536475393
C        -0.87525132807735      -1.31917623256318       2.20808869736195
O        -1.74695270338576      -0.65318888860671       2.81392285739706
O        -0.80297614492093      -1.53583715260880       0.94052145475554
H         0.98649575982394      -1.13889819050958       3.28517820569104
H        -0.12847162218038      -2.32170415147627       3.98952670439321
H         0.78874058217261      -2.72422466593276       2.48806867601650
