46
C14H29NO2 optimized with ForceField in AMS.
N        -1.62185455898466      -0.29350449767746      -0.19018133714034
C        -1.90145124389293       1.12015036419248       0.20951162482879
C        -2.63899832170306      -1.21452418107172       0.41201272670380
C        -0.28813578180290      -0.72126668869707       0.35006036866405
C        -3.34443753318308       1.56713681840087      -0.08306110716231
C        -4.10147291664369      -0.80281093770149       0.15725978353657
C        -4.34524412657935       0.63746804344614       0.59176596673483
C        -1.62387255297766      -0.43550764186386      -1.67220342626285
C         0.93769707479413       0.05850750374429      -0.18658770421591
C         2.23115084218685      -0.46536602409988       0.45156536578023
C         3.45965867405457       0.26505930762965      -0.10361598985009
C         4.75025604808328      -0.27604208133119       0.52171024662279
C         5.97660557220214       0.43112296234715      -0.04659118003720
H        -1.23006098715495       1.82552706547695      -0.32576277160475
H        -1.71503774466924       1.25729757088231       1.29962570125402
H        -2.50735854921903      -1.26447297342043       1.51818378986330
H        -2.49973824612722      -2.25225157341339       0.03122761457734
H        -0.28246064797565      -0.63202580901687       1.46148331171443
H        -0.12145617271530      -1.80103732760363       0.12648458393232
H        -3.49225262741826       2.59853164643236       0.30369786968572
H        -3.53026800846453       1.59670762321031      -1.17772487008350
H        -4.37532180264989      -0.93295365800574      -0.90988310837920
H        -4.77071135861054      -1.47063194471658       0.74188688746688
H        -4.24552981147205       0.71804007557198       1.69688495123157
H        -5.37848890676192       0.93917900521740       0.31542840714959
H        -0.99141731822567       0.33866200870052      -2.15677807433835
H        -1.25109885893909      -1.43804408817440      -1.97914877368850
H        -2.63413324524811      -0.31348297126668      -2.10784650404882
H         1.02325865810478      -0.06629988526620      -1.28570952317413
H         0.84800062803075       1.13822244466339       0.05120356837572
H         2.18229010380439      -0.31733670890139       1.55214882431487
H         2.32929730094103      -1.55406312720028       0.24541222206314
H         3.37221523532020       1.35222135564833       0.11507632245558
H         3.50134777993235       0.12808230172149      -1.20676837678058
H         4.83844237587384      -1.36586586925638       0.31918757712467
H         4.72633723016191      -0.12225256541524       1.62189088720418
H         6.03707063995542       0.27621691177735      -1.14498345121830
H         5.92790120000061       1.51979271459580       0.16863566961350
H         6.89430682862497       0.01680578444185       0.42143338689570
C         4.05037538503415      -1.00988020478661       4.49947537581692
C         4.70099966868687      -2.33784326646825       4.27203108610778
O         5.31388949148042      -2.54697391701881       3.23766082975375
O         4.62219675802585      -3.21453035955731       5.11739921247582
H         4.81984838439650      -0.20950636596511       4.48446887152981
H         3.30754804554473      -0.81727450608947       3.69836620384912
H         3.52961055037903      -0.99043192891516       5.48078126405805
