28
C8H12F6NP optimized with ForceField in AMS.
N        -0.48645796336887      -0.00117418936079      -0.42057746602631
C         0.94300627399711      -0.00017352101631      -0.75247462523154
C         1.77723481684222       0.00063867464318       0.53180958293202
C         3.27047280007616       0.00037321334234       0.22358177224377
C        -1.14338743387647       1.18576308010292      -0.24458760113828
C        -1.14115978332053      -1.18939141755115      -0.24406432078340
C        -2.49205178309001       1.20132751048505       0.11948093219472
C        -2.48942991888074      -1.20869820948935       0.12194227443602
C        -3.16569344966258      -0.00406704248049       0.30669526428653
H         1.19583355363850      -0.89413999967497      -1.36609599224199
H         1.19472606356388       0.89360731720250      -1.36676800620284
H         1.53123535480124      -0.90071571094332       1.13417141274757
H         1.53116874957792       0.90268478010809       1.13309284789730
H         3.54383301045738      -0.90653972354697      -0.35668785411197
H         3.84448384858819       0.00108912649387       1.17389835906759
H         3.54384650291151       0.90633059291386      -0.35814294173490
H        -0.62212043431256       2.12712117786913      -0.37468935088310
H        -0.61804943547965      -2.12937636745122      -0.37446109780194
H        -3.00951848800348       2.13953270020953       0.26005828970358
H        -3.00284324078672      -2.15034217057685       0.26660998398629
H        -4.20874529252964      -0.00401966786210       0.59620828374717
P        -2.31767625360183       6.12829076781394       1.42815728514296
F        -3.84901422444363       6.48262086707571       2.12144104238760
F        -2.92645272873006       4.61612235947054       0.89210196798051
F        -2.82123267455099       6.84190174488240      -0.05113560257634
F        -0.79190607994912       5.75834854605248       0.73061585034511
F        -1.72004136453758       7.64714737884179       1.96293863257843
F        -1.81890301132965       5.40055283654621       2.90222858895543
