35
C9H20BF4N optimized with ADF in AMS.
N         0.05848643613936      -0.32031435467811      -0.04997192044088
C        -0.52141058006104       0.66375890976004      -1.04340557326419
C        -0.93703498640185      -1.46621803284628       0.12939110745713
C        -1.89046093756176       1.18291931358629      -0.63688124552023
C        -2.32225290056861      -0.99152645723894       0.52598109068041
C         0.33721761134216       0.33045333205899       1.29719428500357
C         1.33953415164408      -0.87292894700607      -0.65374448970353
C        -2.87987183034198       0.03122115043832      -0.45732947188763
C         1.30171650072925       1.49642533446956       1.24832491375360
C         2.13260915487223      -1.79932317392144       0.24503364572365
H        -0.59172051532205       0.11305382967145      -1.99653414937512
H         0.21150791021605       1.47283240666006      -1.16988326579784
H        -0.53176672707152      -2.13941402550406       0.89474912693877
H        -0.96027700007097      -1.97492535681924      -0.84942444162816
H        -2.22512771838166       1.87802655610497      -1.42559470615185
H        -1.81640856931997       1.77335854663188       0.29181030288096
H        -2.29940151639272      -0.60636434685776       1.55786313348821
H        -2.95058172748223      -1.89467842122113       0.57932499191045
H        -0.63086011826257       0.63567484407751       1.70590405190155
H         0.68485775694121      -0.48055163559285       1.95217979241223
H         1.02225303653330      -1.39280956569254      -1.57127216624123
H         1.93886379939000      -0.00064017628036      -0.95534509292937
H        -3.85071289450076       0.41455264139828      -0.10460221788484
H        -3.05793815462638      -0.44651454494647      -1.43972483942928
H         1.44134724266560       1.83765713839333       2.28539518372141
H         2.29518699540682       1.22319296148763       0.86330450471648
H         0.92030960921114       2.35446219514549       0.67426312980197
H         2.95790111969732      -2.21498365721639      -0.35303905797292
H         2.56781264730884      -1.27738194580363       1.10756452207058
H         1.53328469003403      -2.63131471748955       0.63635335387304
B        -0.76088765101295      -2.33283675791078       3.49166510122192
F         0.54382565024457      -2.35560389359732       2.84495381402480
F        -1.18843441406945      -0.96324177128922       3.53913239674787
F        -0.67261494566926      -2.87361362783050       4.77177769502393
F        -1.65611999155824      -3.06669006314116       2.66066436917454
