44
C12H24F3NO3S optimized with DFTB in AMS.
N         0.34555215317216      -0.03935451097826      -0.14186892312535
C        -0.64920255795221       0.86820880418201      -0.79747922055067
C        -0.37762321905080      -1.22867027175441       0.41534534688933
C         1.30711282840943      -0.49671282495808      -1.22363000436405
C         1.10767665074857       0.65538197902358       0.96612178595724
C        -1.75354598872203       1.31343942161167       0.15226626529997
C        -1.53544099457462      -0.86738720417762       1.34153171777225
C        -2.51405910637021       0.09621230687031       0.67427176424759
C         2.09850681494998      -1.76348200047320      -0.90803531616578
C         1.58983780266815       2.05668235078313       0.63207530343150
C         3.16123475769398      -1.97660829602201      -1.99523229861858
C         4.05075556416374      -3.16759009169014      -1.64917151621558
H        -1.09017409413160       0.31147319310746      -1.62937427761996
H        -0.10341226600246       1.72186443407294      -1.20135765905276
H         0.35327449522096      -1.82892178392827       0.95898083774252
H        -0.75070011913255      -1.80193172076680      -0.43796711571388
H         1.99660711450990       0.33135996217759      -1.39397100952932
H         0.71417816510154      -0.65549554991401      -2.12869223471341
H         0.45549936224982       0.69429292696143       1.83941088374910
H         1.95803484041887       0.01176332729898       1.19722574610876
H        -2.42905737348104       1.96718491431776      -0.40531028989014
H        -1.34273371378034       1.88787561932054       0.98560820641010
H        -1.16218351706769      -0.43248551210647       2.27210182737550
H        -2.04614188524730      -1.79972166412816       1.59681363022091
H        -3.27136783093599       0.41065316859825       1.39598602151216
H        -3.02098329592180      -0.40484756580057      -0.15680244841382
H         1.43602004950900      -2.63383608823400      -0.87819869188080
H         2.60110724736045      -1.67391654862949       0.05626028261281
H         2.28883365160258       2.34761055171402       1.41670964601787
H         2.13129593150403       2.08730644881212      -0.31032940809403
H         0.77288789990043       2.77726598449735       0.60669366683702
H         3.77952569672229      -1.07850321077567      -2.07241534097267
H         2.67145881693588      -2.13979971204802      -2.96202258686843
H         3.45740693168332      -4.07780475737562      -1.54462830414205
H         4.57578396260997      -2.98194684905273      -0.71219534429546
H         4.78778691024182      -3.31905731677046      -2.43741295953150
S         4.51248339582742       0.43314383833570       0.85525520783751
O         3.90395717541703      -0.72727789624880       1.49810589643658
O         4.54162468974416       1.62586053188627       1.67182000684541
O         4.04018200505592       0.64934745232902      -0.51035091446693
C         6.27825493994216      -0.06750909168835       0.62991433671221
F         6.86065725750807      -0.31253120008737       1.79656026027268
F         6.96763709047721       0.88032548739894       0.00737609478223
F         6.33961039412178      -1.17753060369063      -0.10606840084611
