48
C12H22F6N2O4S2 optimized with ForceField in AMS.
N        -0.12090590542071       0.00054033533159      -0.07168131731964
C        -1.02774350209647       0.53563194175656      -1.13943516548897
C        -0.63996750242894      -1.33287088702181       0.37597085591607
C         1.22473965932421      -0.19678994351168      -0.71458450254484
C        -2.50449889155146       0.62994337047457      -0.72053028399458
C        -2.11579993962593      -1.31266625502916       0.82425432238679
C        -0.03949096566175       0.92700345557279       1.11095170789488
C        -3.01861945993098      -0.73067378914110      -0.25969757496412
C         2.36064516099837      -0.66564096636387       0.22822455834359
C         0.56791867473352       2.31068644665202       0.83148912667105
C         3.65875978644784      -0.87370203422227      -0.54877612023672
H        -0.99007215358153      -0.12459636974790      -2.03784661211787
H        -0.69286605612028       1.53164162569330      -1.49768794352864
H        -0.04906352742713      -1.72331825857945       1.23212587976522
H        -0.55040213771266      -2.08172778875689      -0.44449175613710
H         1.55587838510319       0.74042451735538      -1.21630810414980
H         1.14422261981852      -0.94601064286306      -1.53650869571109
H        -3.10520182309092       0.96073704040388      -1.59539571406207
H        -2.65035916990649       1.39190354322067       0.07242736456540
H        -2.23691158299852      -0.74318168062042       1.76920638449890
H        -2.44024761338707      -2.35395864718631       1.03812260305594
H        -1.03820979399895       1.10942374677856       1.55153154263274
H         0.54284351263843       0.45848335873573       1.93364026085994
H        -4.05160950658797      -0.62246839257506       0.13578745664628
H        -3.05351940843769      -1.42781069376505      -1.12580076121945
H         2.56191134627238       0.08958399935929       1.01457509412943
H         2.10160989362039      -1.62697324314396       0.71512251880068
H         0.59152662165695       2.89002367901290       1.77834461583491
H         1.61233417114509       2.23712143960675       0.47079298133665
H        -0.04846216969257       2.88755803071803       0.11421145407199
H         4.46309221285994      -1.19209503011975       0.14770736412737
H         3.52569601169961      -1.66257526877544      -1.31955951396029
H         3.97126906709224       0.07195326240256      -1.04119965523511
N         1.24441454387657       5.03522412753798      -3.33276985676298
S         2.42718271060435       5.03181111493484      -2.19759847385695
S         1.55205759141165       4.83045260800898      -4.93018509767567
C         2.99398743164857       6.69680595834557      -1.92476739285418
C         1.25552074659184       3.13085272033506      -5.37217412386210
O         1.87204873523469       4.50447079178190      -0.90784524185730
O         3.58022562472355       4.17270351037043      -2.63630206997432
O         2.97760067124436       5.18712108428613      -5.24753789642725
O         0.62767915756001       5.70634230124934      -5.72692460789424
F         3.96635871470756       6.69717585563265      -0.94229818699109
F         1.93338316737961       7.48434042775718      -1.51832333674367
F         3.52329471627685       7.20762918593457      -3.09389446380969
F         1.52979720947975       2.94847083538705      -6.71469165602085
F        -0.06687790521354       2.81206050680652      -5.12761394464550
F         2.07152454442151       2.30586906068038      -4.62183599719177
