56
C16H19F18N2P optimized with DFTB in AMS.
N         1.41115653189816      -1.22211648707829       1.45973371701907
N        -0.08481243927470       0.15869057132269       2.15770903725272
C         2.72621762273196      -1.80024050949586       1.20047963678914
C         3.18158986825374      -1.45387780055616      -0.22001004959187
C        -0.69827713505186       1.31026939590108       2.81287547665960
C         1.20715680851594      -0.15289985644428       2.22091520989229
C         3.06816227648060       0.04478070549284      -0.52275087151700
C         0.22763400872563      -1.59869421995363       0.88497955990995
C        -0.71734637475318      -0.72534592830471       1.32538443626920
C        -0.52946293899026       2.57427385315464       1.96188716183665
C         3.75870707709491       0.39261027310693      -1.83931107108477
C         0.92461197884279       3.02443108785347       1.84408642572207
H         3.41366963584693      -1.38878051707159       1.94331642214723
H         2.65833485249246      -2.88317858339497       1.33145069263049
H         2.58864537425517      -2.02281061447708      -0.94326976891470
H         4.22348971991327      -1.77161333912666      -0.31140148976407
H        -0.22230824273651       1.43442705781684       3.78793978605229
H        -1.75779543939458       1.08441076590283       2.95476585939095
H         1.95926424091679       0.35076759234305       2.79890914355639
H         2.01083984373943       0.32597165588082      -0.58000683283987
H         3.52290900883998       0.61857455274346       0.28912917986929
H         0.15265048843873      -2.44581023155773       0.22598248967626
H        -1.77278871966965      -0.66771347330197       1.12419582110706
H        -0.94927343568623       2.39489540815246       0.96701578827671
H        -1.11774542636392       3.36243644347137       2.44020947860415
H         3.31279778225535      -0.16266917503636      -2.66579974106610
H         4.82010553358035       0.14895102964799      -1.78753576712040
H         3.65611257857720       1.45892870398015      -2.03918732117415
H         1.51895473169224       2.28260227238504       1.31054745013618
H         1.36362659221301       3.17875317459995       2.82930569234263
H         0.97050593370421       3.96198350457132       1.29123535694960
P         4.54402595558729       1.16243579874269       4.23064846547854
F         4.30972342283604      -0.49481521937616       3.91699565019736
F         3.63420428215858       1.45371194751156       2.79531833406885
F         5.39306322008650       0.85869866803458       5.63381985527021
C         2.89165463797983       1.04526577044132       5.30288446979890
C         6.21654518138684       0.95422074740367       3.22729344425749
C         4.64506413109774       3.13884087620995       4.41016458044515
C         2.44024123067413      -0.34879651653549       5.81451959555400
C         6.15270387477913       0.78809389497849       1.68773569048315
C         5.44063167441482       3.83481777915740       5.54899042247765
F         1.80375592716513       1.50975560114626       4.62210995255037
F         3.02800582133144       1.82548724552987       6.38283356712084
F         6.82282790016654      -0.15495675176205       3.68318160150859
F         7.04258754735628       1.98281829687774       3.47685033281079
F         3.37963022009959       3.60465779088334       4.49396685472427
F         5.14167686724862       3.60341117669214       3.24576095254346
F         1.45814740622639      -0.21285252614939       6.70932867268492
F         3.41170320719665      -1.04768538004378       6.37146002754584
F         1.93161468510050      -1.06410407155592       4.79284512752327
F         5.43253936494736      -0.29864594640628       1.36703286689986
F         5.60149228497730       1.83253179968538       1.07849388028536
F         7.37108216752634       0.61702399338169       1.17929298169283
F         4.85649051495154       3.63905035268531       6.72684836627475
F         5.48828235745731       5.15092462939138       5.33005165498903
F         6.68824658386016       3.38709483274866       5.62445025029749
