67
C19H28F18NP optimized with DFTB in AMS.
N        -0.85762562281527      -0.62120774819287       0.53755972127092
C        -2.07834557085822      -0.23172150613805      -0.24446072317915
C        -0.75744309585304      -2.12247358780952       0.57571739120359
C         0.32629159923667      -0.07872105448498      -0.22759304351128
C        -0.89245358660881      -0.09156941780823       1.94571904099337
C        -3.36009595102240      -0.86254168050448       0.28554383061635
C        -2.02333232250045      -2.80903810851237       1.07027470185602
C        -3.24625712273491      -2.38554919994574       0.26331124435604
C         1.70288753798130      -0.36307939554622       0.36862036148380
C        -0.95759395398737       1.42189216078924       2.06618340829432
C         2.76545678959135       0.18633395654508      -0.59341829962379
C         4.17838174576695      -0.10581624499513      -0.08088251390180
C         5.24303791337111       0.39887014022860      -1.05861330104415
C         6.64756230726176       0.09214787657268      -0.54108963735778
H        -1.90950865069881      -0.56242174794733      -1.27332805029610
H        -2.14664104152805       0.85751639215500      -0.23877570338119
H         0.07411679998422      -2.37224647551851       1.23135364168919
H        -0.52532275913271      -2.45073896280292      -0.44085348660542
H         0.17399292888774       0.99911380874023      -0.32557542946385
H         0.26757812883771      -0.51950595479885      -1.22687386231743
H        -1.75682792982291      -0.53771001154423       2.43816102261204
H         0.00510639177370      -0.45877939267607       2.44212201726866
H        -4.17778126844032      -0.53469481595874      -0.36173383570010
H        -3.57499974879063      -0.51181219711651       1.29811159070821
H        -2.18633313338528      -2.59808311291560       2.12796591570382
H        -1.85812924775708      -3.88474659323333       0.97293168212001
H        -4.14645063258430      -2.83062633020341       0.69261775828802
H        -3.15304322298773      -2.73140460609588      -0.77136047612573
H         1.81224287189237       0.11295167028661       1.34492401367072
H         1.85498725045874      -1.43612410379981       0.49676839153574
H        -0.08509465356680       1.90322068904814       1.62825381173100
H        -1.85838109035721       1.83500361572773       1.61455475357642
H        -0.97322005606499       1.65687348449087       3.13044918407477
H         2.62868024597113       1.26772308731604      -0.70803044147290
H         2.63077510550147      -0.27325788313107      -1.57930900590221
H         4.29492751628760      -1.18416137960750       0.06032509940972
H         4.31741320344455       0.37597928661939       0.89115550259413
H         5.10050306294909      -0.07932826137790      -2.03410031481429
H         5.13151450549242       1.48013986338870      -1.19693731342091
H         6.78037737314516      -0.98284993770844      -0.41499154203696
H         7.39465197793147       0.45563034504951      -1.24707943431610
H         6.81291927239505       0.57652168212215       0.42194852844918
P         2.25897048617484      -3.05285123654666       3.85056934817689
F         2.72534917257935      -1.88144442479643       4.94845634462772
F         1.32356113356594      -1.86485866696729       3.01458558611954
F         3.12908528267037      -4.27081652896192       4.59415774578407
C         3.86909330634909      -2.48199826341016       2.87982161150531
C         0.79631286442970      -3.39471755669251       5.12166209087307
C         1.55718891490788      -4.30416206808504       2.43273506418672
C         5.24609362641729      -2.69974286600969       3.57231163703962
C        -0.38200949729272      -2.38587913789021       5.14851965153932
C         2.05472978699287      -5.76705037806102       2.35587171530084
F         3.75602334881032      -1.15461050614179       2.66198758499308
F         4.00778156041604      -3.05771254220224       1.66852909441167
F         1.32453158802095      -3.37490173737118       6.35523122537700
F         0.25905468671431      -4.61699623150691       4.95741655044149
F         1.76834457943370      -3.77110649189383       1.20136146874182
F         0.20558836458106      -4.34977620110539       2.54558902092518
F         6.18026858107969      -2.01111767697115       2.90449244668958
F         5.58734850463555      -3.98362558014879       3.53356220337723
F         5.26979279706173      -2.29299453215163       4.83286437831222
F        -1.22403689867721      -2.65463470280673       6.14329553505797
F         0.03605072941377      -1.13148171883821       5.29419033981422
F        -1.09409568300011      -2.43335209559915       4.00704017537043
F         1.49583713147941      -6.39358734173052       1.31405799342208
F         1.74455410762870      -6.44415802631136       3.45349319103933
F         3.37397821744323      -5.80058861780645       2.19325353553883
