28
C10H16ClN optimized with DFTB in AMS.
N         1.69533088666174       0.08942188135298      -0.28851444333949
C        -0.73302065038556      -0.05152310600830       0.21000070993319
C        -2.12626800988174      -0.00528896923238      -0.42237393974341
C         0.35017391410578       0.13549787279613      -0.85954743275021
C        -3.21858032729493      -0.19709254560693       0.63477989998700
C        -4.61241071564302      -0.14889378768285       0.01124002819809
C         2.18461248689835      -1.10965502556927       0.15471179196119
C         2.31796394452197       1.29485266545732       0.07654026809395
C         3.44178436310462      -1.21886076374033       0.64341647341959
C         3.75307475609953       1.14581915385901       0.34556163333497
C         4.26914262410881      -0.05260793090015       0.67901707708350
H        -0.58574371619092      -1.01291362850550       0.71156472298817
H        -0.63906309298727       0.73738354094327       0.96062609326835
H        -2.21096548745503      -0.79005648561506      -1.18273524702191
H        -2.26767745203580       0.95946895920120      -0.92201477656732
H         0.27292648901270      -0.65493803089619      -1.61448314282559
H         0.22550046560163       1.10141324789457      -1.35799700544379
H        -3.13133222763491       0.58804541681199       1.39304252143297
H        -3.07592855778358      -1.16147444063117       1.13399339678201
H        -4.78112433207775       0.81349440724003      -0.47408563613214
H        -5.37148114081121      -0.28709392277176       0.78152081788246
H        -4.72589974668458      -0.93766548568933      -0.73397826159298
H         1.53616672411598      -1.96701612107805       0.01371578809992
H         2.07167075535037       2.09817655852186      -0.61802749555367
H         3.83126940448876      -2.17856051075982       0.95351247966180
H         4.34317692772278       2.05340894324259       0.35616634616910
H         5.31765738168464      -0.15897938213571       0.93201121910031
Cl        1.50630672698865       1.96795477920185       1.69497517697392
