47
C15H29ClN2 optimized with DFTB in AMS.
N         2.80519858965768       0.66878186704713      -0.58907825989007
N         2.48270428164795      -1.41610556188809      -0.14730703031558
C         1.43091424864407       2.70617375528004      -0.62476845517010
C         2.83468752536457       2.11957041603054      -0.43022714554222
C         0.70443251689136      -2.52255401499431       1.13328896656263
C         2.13128410416236      -2.62967057472916       0.58445727869985
C         0.45522574223962       2.25280481096474       0.46259271854494
C        -0.33015767674567      -2.39561781570787       0.01099347089811
C        -0.97350390269195       2.69506040120494       0.13359611447740
C        -1.72114973521086      -2.08428707207385       0.57256004235035
C         2.57001026961374      -0.19950090673283       0.39472118151583
C         2.82300562354270       0.00264524398332      -1.78010154247149
C         2.63278116118812      -1.31483862157774      -1.50131814190595
C        -1.95361554351259       2.22955033814460       1.21363694177152
C        -2.71934830730174      -1.72633480480270      -0.53510754411626
C        -3.39341290722429       2.58435855037040       0.84648417460989
C        -3.08280264928982      -2.92267261684939      -1.41309589073544
H         1.52583871737497       3.79565019762809      -0.61965239462330
H         1.05212124966689       2.39139225790585      -1.60022827348586
H         0.64577697862073      -1.65366254143883       1.79665143890604
H         0.51016323512557      -3.41699295306366       1.73327435514349
H         3.52286776398343       2.52050378506571      -1.17841988930263
H         3.22251399871728       2.34016295615818       0.56897272496400
H         2.85082548338303      -2.75895140138815       1.39896656749308
H         2.22154867794444      -3.46983097974983      -0.10818411347931
H         0.76701365127474       2.65316815961036       1.43499897554245
H         0.47172213123734       1.15968873493908       0.52446201506357
H        -0.34968645195319      -3.32606077114555      -0.56465123571013
H        -0.03538047996727      -1.58676676828906      -0.66301771449907
H        -1.01299276759144       3.78596185333065       0.04247856304222
H        -1.25984254542583       2.26084493003884      -0.82852267958079
H        -1.64051705253097      -1.22913051003464       1.25354681110029
H        -2.09104100448525      -2.93755030460169       1.15347984143361
H         2.51173450534280       0.03285408674693       1.44330276356649
H         2.94359846942179       0.51159785090775      -2.71876723920151
H         2.55524093045796      -2.16706437109903      -2.15228759532236
H        -1.86992206886301       1.14380200591030       1.33407900927218
H        -1.69469690202053       2.69204978485255       2.17329443026386
H        -2.29564019992994      -0.93302986497349      -1.15745835203502
H        -3.62934597400844      -1.33810408524222      -0.06498181493414
H        -3.50504929054271       3.66384282543403       0.73336167184433
H        -3.67334480898930       2.10636660936058      -0.09288080122388
H        -4.07513155767569       2.24404475915264       1.62674688785581
H        -3.85347371651094      -2.63319026067608      -2.12803596998635
H        -3.46435631913727      -3.74670484527061      -0.80664962911702
H        -2.21463905613226      -3.27436209815357      -1.97116496679762
Cl       -0.00040610256213       0.23573829931508      -2.24039555287588
