28
C8H17NO2 optimized with ADF in AMS.
N         0.69578575558129      -0.04639360811642      -0.16232246633484
C        -0.11839320347655       0.56523435918342      -1.29573687633591
C        -0.13889905154468      -1.26445265479769       0.19207674957532
C        -1.57881276150612       0.38662127516333      -0.87706940329631
C        -1.58022346093055      -0.77389920985202       0.15575151885259
C         0.78701476753118       0.88756603143643       0.99432204530196
C         2.05802287532864      -0.44685873795498      -0.63696377410182
H         0.12833185178176      -0.06718652253790      -2.17126941442454
H         0.21300541849046       1.60455664684168      -1.43647373555199
H         0.21500445064925      -1.66916294779706       1.15155564368456
H        -0.00599479267608      -1.96560931130664      -0.65064430114851
H        -2.16065452928917       0.10583984096397      -1.76518556103828
H        -2.00353592348701       1.30635699504111      -0.44522535585652
H        -1.93340634109985      -0.43848691851457       1.14336830239102
H        -2.21374596090251      -1.60173699892286      -0.19093786874693
H         1.33641799335990       1.78469555144026       0.68134045336803
H        -0.22350104931942       1.16249418322159       1.31903954202198
H         1.32165498089021       0.38712573305016       1.81299211819025
H         1.89935796156446      -1.07283115731366      -1.54000218432800
H         2.62040587023353       0.46464090620056      -0.88266541977599
H         2.55840066406057      -0.99531801405200       0.17281429941777
C        -0.31345385966010      -3.33083536371221      -4.37980233763049
C        -0.15621932749416      -2.36066586824706      -3.20032058449199
O        -1.13617504937896      -2.27769957576416      -2.40289569364366
O         0.94247134115159      -1.71461414854666      -3.12014317382054
H        -0.54796991263794      -4.33549964306085      -3.99646944094343
H        -1.16958802552232      -3.01814728748604      -4.99725015501844
H         0.59126490550257      -3.37104668975974      -5.00027717411530
