40
C12H25NO2 optimized with DFTB in AMS.
N        -0.84140603345543      -0.01249978831606      -0.16229625310401
C        -2.02550821688438      -0.15259156548878      -1.09316592515301
C        -1.12244224859735       1.23361857996133       0.62978338991502
C         0.40892161463926       0.15910429346602      -0.97376711364054
C        -3.12057700674682       0.77504708921308      -0.56648213568163
C        -2.63064724847701       1.25004167260882       0.80037294067653
C        -0.76298003134251      -1.18192852907169       0.77222974236778
C         1.67242346733463       0.33785690970564      -0.14013652266418
C        -0.35965703038850      -2.49050461265768       0.10649288052189
C         2.84766666314827       0.64620363410131      -1.07703641672637
C         4.14350351203406       0.84165191888782      -0.29340005467731
H        -2.33902303222002      -1.19629668238187      -1.11274278373278
H        -1.69436337247907       0.15038972447048      -2.09541610617640
H        -0.56390861886389       1.21796301684648       1.56543649462138
H        -0.81603701218689       2.07758640537775       0.00432256958965
H         0.49310850146615      -0.70277171340430      -1.63754767958661
H         0.24023023268478       1.04330123716902      -1.59326241902455
H        -3.21154128158434       1.63427363654613      -1.23480915966628
H        -4.08261750973177       0.26399809318876      -0.50417405740279
H        -2.95173505372512       0.57663057694925       1.60082964797316
H        -2.98091368467636       2.25677890163684       1.03043894103624
H        -0.04465004150084      -0.93155999979149       1.55678070175223
H        -1.74956006103945      -1.28742738437419       1.23000064957852
H         1.54719827084566       1.16626115187129       0.56284207214350
H         1.89820753198450      -0.56433799180232       0.43697423701188
H        -0.48010473488448      -3.28990740343163       0.83746191467905
H         0.68114957022449      -2.47329063559625      -0.21116746350798
H        -0.98555682113474      -2.71695642359103      -0.75472399625008
H         2.97003359457813      -0.17727877857715      -1.78788048677554
H         2.62467181664482       1.55222754917597      -1.64797923640239
H         4.38996852506649      -0.05816262759024       0.27236096996368
H         4.04698832023773       1.67489470018410       0.40388340203269
H         4.96267620005535       1.05602624884109      -0.97948498079745
C        -1.27753750630798       3.36772391525488      -4.24460416968386
C        -1.07453832632792       2.30163751133573      -3.14500900543568
O        -0.78615957449356       1.14384788600614      -3.51368492314541
O        -1.21289207548688       2.68778833220923      -1.96081179358426
H        -0.43901268131490       4.06281881056373      -4.21189032122575
H        -1.32348859376241       2.89887282282827      -5.22537067033933
H        -2.19426997543171       3.92186380117554      -4.04910684057900
