50
C14H15F18N2P optimized with ADF in AMS.
N        -0.76939739588258      -0.80885033218190      -0.84684908581965
N         1.38877351443804      -0.73847666877473      -0.59955661399120
C        -2.21065527019219      -0.59260663777748      -0.63103407614314
C        -2.79181586939561       0.50581132785322      -1.51505225050218
C         0.22239787473053      -0.31160757578365      -0.09332220917541
C        -0.21955084440974      -1.54933933885921      -1.87064106361834
C         2.72780687301732      -0.45060491483523      -0.05490989528583
C         1.13351156821281      -1.50509369631306      -1.71510734789900
C        -2.26970929265572       1.89286283058037      -1.16609699310113
C         3.43514663865917       0.67117411852409      -0.79360413066482
H        -2.33804760775075      -0.35004430133678       0.43571483106734
H        -2.69793737037290      -1.56179215497848      -0.81654768888600
H        -2.58152205448543       0.27573120428991      -2.57191542346242
H        -3.88738672160924       0.45932351018645      -1.38470760979878
H         0.10023136115761       0.31374119739680       0.78141954114913
H        -0.82455663655742      -2.00185930962432      -2.64590358090494
H         2.59292704631253      -0.22074884952177       1.01271187246008
H         3.28912081697952      -1.39551537744316      -0.11813249819533
H         1.92625096303335      -1.91600999971860      -2.32630085898166
H        -1.18173235446657       1.95455226922491      -1.30044910539099
H        -2.52419344954405       2.16353444794891      -0.12710744534753
H        -2.71111071962122       2.64771709287117      -1.83310806331232
H         3.47575922725209       0.47292818978248      -1.87303517159309
H         4.46103775868761       0.76093378016923      -0.40711629423266
H         2.91729192272177       1.62823432840593      -0.65173603751148
P         0.68203499828569       1.26526851479105      -4.60678415869687
F         1.93614547750938       0.52871774496193      -3.75503501410155
F        -0.45989074103984       0.70445732606452      -3.50409567587951
F         1.78088051096377       1.85018102702881      -5.69378391018522
C         1.01023727123537       2.75290349948742      -3.34469977459346
C         0.53017789023699      -0.52788470072485      -5.57740779368932
C        -0.77411179364454       2.06903048461909      -5.74728825777437
C         2.32888176494100       3.57812084595856      -3.46069277014530
C        -0.80441242389389      -1.25062482507501      -5.98352626372656
C        -1.13952613480368       3.58297702439143      -5.91313459620304
F         1.04292098070082       2.23941725808379      -2.04643813664624
F        -0.00665233324424       3.67717600520474      -3.33323241010616
F         1.09199610577823      -1.49615961734243      -4.73954089960152
F         1.29443845325501      -0.51468471048391      -6.71447716669216
F        -1.98301248335562       1.46822501734781      -5.43900396266269
F        -0.43547967133775       1.68492829327445      -7.02887592279556
F         2.39059660468569       4.45970702083084      -2.41469999497299
F         2.38069459440492       4.29349810055251      -4.59975676408129
F         3.42857234832624       2.79154666971004      -3.38857826563089
F        -0.50161699167712      -2.52656916793562      -6.36663195336371
F        -1.65921003955331      -1.35188650930686      -4.92071161654829
F        -1.46216457841076      -0.68196404256134      -7.00578056440840
F        -1.93616152496829       4.03101646662262      -4.91144238636231
F        -1.84598102501113       3.74086469910952      -7.06782510970951
F        -0.03962733984186       4.36208452200577      -5.99629602998170
