33
C9H15F3N2O3S optimized with ForceField in AMS.
H         0.47023002842682      -0.45468393387197      -4.91205808400137
H        -1.18593592207600      -0.68217562903848      -4.22531636502471
H         0.00426662650725      -2.03961770049776      -4.17149926535162
C        -0.11216563176421      -0.93771740798045      -4.09970830198694
H         2.50613898239308      -0.07176633769169      -0.37599352193927
H         2.42495953134393      -1.15882249022876      -2.81815655516387
H        -1.36074715864250       0.47023761375801      -1.95352799613049
N         0.37571627365501      -0.47769356678626      -2.80578399356266
C        -0.31984753276614       0.18470177468852      -1.86098493773288
N         0.44299383113840       0.42892159773444      -0.77713653264884
C         1.65643491825326      -0.09444960277569      -1.04609192656213
C         1.61479779283489      -0.65491282540289      -2.30697893123172
C         0.03449295438207       1.10889913826246       0.44926945173114
H         0.82592537446008       1.82906070492351       0.75275094593278
H        -0.90053884253615       1.68275605090825       0.26544241227809
C        -0.20601685401891       0.08643734244431       1.56275837403892
H         0.73373160524074      -0.47686473088009       1.75287910926474
H        -0.98838721622963      -0.63147871724301       1.23110167838984
C        -0.65973626591232       0.77250143848229       2.85506036027434
H         0.12346020762345       1.48286685362710       3.19358008656963
H        -1.59723080925709       1.34134917786012       2.67080021000084
C        -0.91047800823762      -0.24730706017472       3.96140435997797
H         0.01873052627818      -0.81568285938454       4.17948893448736
H        -1.71184402374525      -0.95485966075152       3.65914738287743
H        -1.23066742066211       0.27821470537328       4.88561443503977
S         3.86918364553048       2.47473473156884       2.87082335205753
O         5.37541508070751       2.26676943244448       3.08952215747177
O         3.37074308081430       1.06524690913480       2.51800452289521
O         3.81274642956595       3.21171781077512       1.52436680691367
C         2.99599650116026       3.29066712567818       4.23990971951706
F         3.55204439384293       4.53481718446909       4.46751293182731
F         3.10747564357846       2.52237433412109       5.38300019420025
F         1.66192978851090       3.44005610355395       3.91561118749086
