51
C13H24F6N2O4S2 optimized with ADF in AMS.
N         0.01466314672747       0.88090969031087      -0.37257307401407
C        -0.56054491577849       2.28757098659162      -0.21962374009434
C        -0.93177053823933       0.05756479522257      -1.22216772152503
C         0.20189278855125       0.27301542068050       1.00642884624415
C         1.33557354385119       0.95966428152801      -1.11726202548960
C        -1.97789825018673       2.28901722251731       0.32571299492753
C        -2.34495874481857       0.01437908448907      -0.66694012299691
C        -2.91550599879669       1.42515228766890      -0.51564790416634
C         0.83319280314859      -1.10504720247994       1.05201639508296
C         2.46405991404087       1.65723543249326      -0.37945862004983
C         0.90133907933283      -1.55432834539970       2.51539287415063
C         3.68017341648503       1.78760201766856      -1.29592895129786
H         0.11187363571423       2.84604683374585       0.44482369893594
H        -0.52659631192264       2.72352035109154      -1.23270967752329
H        -0.92601478352914       0.53167277314304      -2.21773785599115
H        -0.48995967415826      -0.94412141969941      -1.31706400786255
H         0.79511949024952       1.00243238650537       1.56932164791212
H        -0.78169966831440       0.26222828552355       1.48894544956197
H         1.61084122474057      -0.07778625731366      -1.36515575248814
H         1.10955698623059       1.48037635508600      -2.06235902821131
H        -1.97973741096462       1.97349600844227       1.38089557940398
H        -2.30754512710453       3.34107736831027       0.32834441817980
H        -2.95146238714379      -0.58660251184001      -1.36539129904260
H        -2.36301891163213      -0.51553092010842       0.29962004239048
H        -3.91492286154480       1.38394308319168      -0.05563717691179
H        -3.03982903992740       1.87215936596241      -1.51991590866372
H         0.24402740596079      -1.83651940287672       0.47230368056115
H         1.85032771353094      -1.08761362717752       0.62528237802418
H         2.15569072909952       2.65358555316600      -0.02900990430119
H         2.74566573105003       1.08461233394717       0.51610662958057
H         1.38400079038087      -2.53859481623761       2.59794409238152
H        -0.10621589905401      -1.62223180682790       2.95284510793372
H         1.46923216556145      -0.83569688513378       3.12406684700342
H         4.49790461733914       2.29525050867094      -0.76503557202134
H         3.44379945339492       2.38012533505159      -2.19383697501756
H         4.04886742602991       0.80208360455680      -1.62272166288265
N         0.11882769495390       2.74425178458658       3.01564187368693
S         1.39060901579245       3.72665051263220       3.11503888539826
S        -0.52774215899494       1.88928521799424       4.22124346667866
C         2.91410746146432       2.66568758020467       3.54901668037563
C        -1.37775184435582       3.09845969820091       5.41173775446018
O         1.66149005466103       4.13133078473863       1.73227892386946
O         1.34437321285655       4.72002930115227       4.17617383194369
O         0.43630893412824       1.17692007824185       5.05255078808512
O        -1.64457189750202       1.15582107048292       3.61778916172307
F         4.01899297441532       3.27515700232242       3.05102358785331
F         2.83643527261357       1.42518324438634       2.97969131968629
F         3.06503713977140       2.51746442550075       4.87436446287091
F        -2.29217374682913       2.40756595100519       6.13686721482042
F        -2.01768164296804       4.07689453466720       4.72885760452211
F        -0.49244771921103       3.65561671251335       6.25731360910312
