46
C12H26F6NP optimized with ForceField in AMS.
N        -0.70938657674450       0.31328250663987      -0.14988374323758
C        -1.28620634483386      -0.45200726040972      -1.30357402739749
C        -1.82949334898992       0.73855552207039       0.75322132351324
C         0.28028345537419      -0.51046983384273       0.62993923204472
C        -0.06940472063863       1.54542188068899      -0.72772973067893
C        -2.15589982546356      -1.65248910052126      -0.89028008298148
C        -2.74195591476808      -0.41700205536573       1.21129272233177
C        -3.29014432213654      -1.19547834814984       0.02017289295604
C         1.55683160579422      -0.93475042886857      -0.13835675010637
C         0.66456303996432       2.45919378167130       0.28520400940955
C         2.49010602293781      -1.74509174520221       0.77095919695762
C         1.23242347471486       3.69266264792699      -0.41185089431018
C         3.75649396897230      -2.16672717031711       0.03061250195649
H        -0.49509553776284      -0.80346966832861      -1.99750656283358
H        -1.93357845766261       0.21693970405043      -1.91873347597422
H        -2.47570126601580       1.49180462370077       0.24544821834768
H        -1.43884432297867       1.22224800017373       1.67390853044038
H        -0.18960678850924      -1.43817381130668       1.01011552067996
H         0.59016405020965       0.03423678956600       1.54866303779426
H        -0.84046339233562       2.16810491175279      -1.23846307165958
H         0.64719783603001       1.26947964681131      -1.53287748550737
H        -1.55140285863540      -2.44053532111099      -0.39633627663376
H        -2.59407440125041      -2.11111386302117      -1.80262741993641
H        -3.59649688878890       0.00473950258851       1.78389014020286
H        -2.20229116262788      -1.10002674059960       1.89984369768026
H        -3.98957894326068      -0.54906586132135      -0.55463201245140
H        -3.85806757082160      -2.07790645967771       0.38299947852525
H         2.11606972061409      -0.04720421452086      -0.49771813189422
H         1.29288415735123      -1.56862977285754      -1.00865855875232
H        -0.02659491089561       2.81012610240757       1.07758100833631
H         1.51115737041568       1.92534234314699       0.76292191811802
H         1.96510335246329      -2.65687422300681       1.13076419303572
H         2.77874848481038      -1.13437924482783       1.65421343161598
H         1.76482800336855       4.32652058755222       0.32828329846799
H         1.95093268144069       3.39234121847332      -1.20389334088967
H         0.41361727453951       4.29029132106585      -0.86579831171584
H         4.31992836603416      -1.27205044665418      -0.31038272271816
H         3.49912860072050      -2.79572057727453      -0.84829590697586
H         4.40556922610329      -2.75661037276536       0.71140898226891
P        -3.54854325777642      -5.31036385521190       2.01949410675159
F        -2.48519841055914      -3.99668114501569       2.32459231736165
F        -4.78971650829617      -4.32868983380011       2.68687298905378
F        -3.89320769574121      -4.75528086888487       0.43156797086853
F        -4.67247233592407      -6.57985170598443       1.74518345917676
F        -2.22708879370892      -6.20049315646435       1.37865552977130
F        -3.22586685553248      -6.01881924797528       3.55039481758782
