46
C12H19F6N3O4S2 optimized with ForceField in AMS.
N         1.83934984203762      -0.84890817160284      -0.17161410998508
N         3.03798351257002       1.01808552155088      -0.04234213050659
C        -0.41320924795792      -1.85683583714391      -0.06607677036669
C        -1.11308277150419      -0.51908140723732      -0.34636542369571
C         0.98308174402796      -1.90992039031892      -0.69934789862187
C        -2.52528702202657      -0.49336891673155       0.24720856704183
C        -3.17990180323429       0.87639328209562       0.03254506676653
C         2.29967566417981       0.22528200982720      -0.84222633702049
C         2.30394163057941      -0.73203084423597       1.08903273302170
C        -4.58511874806604       0.91756944023187       0.62395113734510
C         3.04745893566281       0.42810260753412       1.16887986440358
C         3.69818901756674       2.26480515536069      -0.40601348033303
H        -0.32644944935092      -2.01448412368972       1.03117020345165
H        -1.02251742782987      -2.68733534212075      -0.48487051416869
H        -1.17245915568868      -0.35576024852984      -1.44506720564568
H        -0.52010816089954       0.30834977606259       0.10102265834631
H         0.89079173907333      -1.81263228940447      -1.80361500739558
H         1.44961780428998      -2.89597589243567      -0.48662542027433
H        -3.14327550135155      -1.28046699020127      -0.23871037102050
H        -2.47149799670238      -0.70726105137032       1.33766010255568
H        -2.56472446558883       1.66543809716961       0.51823365483346
H        -3.24001324279583       1.09754814005490      -1.05559819768159
H         2.09702617842472       0.42727384143277      -1.88698457453414
H         2.11317882528877      -1.43510898526185       1.88968296118903
H         3.55765668476846       0.81159709114553       2.04308476202116
H        -4.54973826538718       0.72106512200820       1.71678541382990
H        -5.02717551187032       1.92269133405052       0.45853626638376
H        -5.23197252564647       0.15893739661876       0.13407161726456
H         4.79415436952713       2.16185458178470      -0.26215176775173
H         3.49657118291139       2.51642039381930      -1.46916333609821
H         3.31958692391501       3.08790110391144       0.23565233372830
N         6.34795211686158      -3.05029491409143      -1.88712489861825
S         5.37015499119451      -1.73467121721559      -1.90962528174003
S         7.34813145292144      -3.38333683859611      -0.63230846984437
C         6.07941310313691      -0.48898275717697      -2.96426714923965
C         6.45065532147793      -4.26885361988537       0.62716732251130
O         4.02791462525558      -2.12770620319155      -2.45924364475133
O         5.20566785320994      -1.17345770726391      -0.52530340728460
O         7.89592973793021      -2.10914063400001      -0.05100387613718
O         8.48173363086277      -4.24226240335574      -1.11763295609759
F         5.24187062691433       0.60925562048705      -3.01009249707935
F         6.23874950886630      -0.99661810602111      -4.23945457601781
F         7.31005416156245      -0.10465974976817      -2.46702328542149
F         7.29240092957791      -4.54217980215844       1.68848432377838
F         5.97279808068556      -5.45591169743133       0.10582805507946
F         5.38851246982001      -3.50663344090556       1.07349436717985
