39
C11H19F3N2O3S optimized with ForceField in AMS.
N         1.91407054536076      -0.95809266690146      -0.24567527470987
N         3.17024706455843       0.87181484694173      -0.12737630192344
C        -0.37735739026416      -1.86667526519335      -0.06631273201484
C        -1.04412410083569      -0.50848094762414      -0.33001204950367
C         0.99071198972449      -1.97202742040699      -0.75277743209874
C        -2.45632993468804      -0.45605071232898       0.26397138255758
C        -3.09283097266859       0.92063435202871       0.03725575373835
C         2.36775380429358       0.12353892239124      -0.90855695628741
C         2.45255749560154      -0.89462086073666       0.98932719021949
C        -4.50530774754278       0.98056717815698       0.61125102522991
C         3.23327897325989       0.24098318277433       1.06148196688194
C         3.80580760031955       2.13588944697475      -0.47545435274230
H        -0.25617793541385      -2.02004683795116       1.02825396962133
H        -1.02777571155512      -2.67937129190495      -0.45721459376828
H        -1.10135365809254      -0.33167919535396      -1.42677973882219
H        -0.42912294988679       0.29806659570532       0.12601621629206
H         0.86113499497056      -1.85588387409603      -1.85152561212069
H         1.42029749775270      -2.98089872775199      -0.57181518310681
H        -3.08596500413479      -1.23752099147425      -0.21607219202376
H        -2.40579270891751      -0.66249615670904       1.35589385079009
H        -2.47371650221518       1.70416165338985       0.52654176810843
H        -3.13873763415463       1.13786611558765      -1.05226144222354
H         2.09989655405126       0.37284771097546      -1.92810082663899
H         2.28149930352694      -1.61212738378520       1.78129860400769
H         3.79077103379846       0.58833746221347       1.92188080550528
H        -4.48634607021781       0.78972088764948       1.70539467097341
H        -4.93482545220148       1.98937281594037       0.43472924248546
H        -5.15511833198393       0.22713498396662       0.11725908128566
H         4.90600143182023       2.04591054129297      -0.35893519289554
H         3.57657876759320       2.41023288086628      -1.52737805070659
H         3.42994340297185       2.93863607129832       0.19335478120626
S         0.85061180216329       3.17751502107093       4.92892689473810
O        -0.56913075879299       3.48632074947246       4.43040232854589
O         0.70258944158605       1.78308879979763       5.55604688350703
O         0.99784855705496       4.09580804160377       6.15145645813128
C         2.15864512365814       3.33013969725162       3.67893207891829
F         2.24205306435443       4.64183141145466       3.25293672603960
F         1.86047550737358       2.51788611586323       2.60295943362676
F         3.36890005787198       2.94645159855032       4.22469100267675
