49
C15H28F3NO2 optimized with DFTB in AMS.
N        -0.63101820484140      -0.50896043284380       0.09492992804316
C        -1.91362282894410      -0.30065334794609      -0.65400401364375
C        -0.28635077791040      -1.97408586926367       0.04748525610137
C         0.43908650852561       0.25821164271391      -0.65196296266671
C        -0.72812663348833      -0.06357836448126       1.52892540840952
C        -3.06182483399143      -1.15532202477009      -0.12741700985067
C        -1.39261123521402      -2.87033311798061       0.58212226415986
C        -2.69923732449311      -2.63959334527453      -0.17218547000135
C         1.77429046367178       0.37676211130996       0.08440771662175
C        -1.02580770108466       1.41518833649006       1.71363912508256
C         2.94864884185975       0.41687653898241      -0.89909200200348
C         4.26938787485232       0.54638789214955      -0.13153061170608
C         5.47166087246937       0.40933294616891      -1.06946419417376
C         6.78428159495896       0.59892168716691      -0.31142511306798
H        -1.71063545082836      -0.55889707973555      -1.69735413760680
H        -2.16741857543310       0.75978197709486      -0.60272269337973
H         0.61395375320509      -2.11672023308265       0.64545664713200
H        -0.07421194195675      -2.21951050118832      -0.99603222581434
H         0.03088341470663       1.24856229907403      -0.86911733839860
H         0.57419381090909      -0.26581119627298      -1.60191443127621
H        -1.51629175408042      -0.65199572223762       1.99928657613409
H         0.21763163080964      -0.32956836188253       2.00839030404509
H        -3.93053537571199      -0.96180375519951      -0.76257074965986
H        -3.32402749008607      -0.86009705331355       0.89185065926969
H        -1.53522152743046      -2.70975648373041       1.65327883590389
H        -1.05742774040948      -3.90172966888315       0.44724121810366
H        -3.50225751528202      -3.22755493130988       0.27812715095493
H        -2.58650463602860      -2.95665186233138      -1.21404227981802
H         1.77910144549447       1.27863579896517       0.70234553687156
H         1.92072516557001      -0.47623251394968       0.74216435757333
H        -0.26988023826040       2.04676169873176       1.25164995925559
H        -2.00455091415870       1.68825499680812       1.32023529952728
H        -1.02338432156766       1.61419522156803       2.78524018887266
H         2.83150257765766       1.25539073196918      -1.59477634200666
H         2.95453336932066      -0.51010535970859      -1.48186680168858
H         4.31932526441875      -0.23159746324944       0.63715197906310
H         4.30161240353631       1.51814712502110       0.37302110953074
H         5.45806211766003      -0.58414306278473      -1.53005077281092
H         5.40223842000035       1.15105713924526      -1.87369392669356
H         6.86173438158921      -0.12304979558125       0.50201816922039
H         7.63039803438271       0.45799993592635      -0.98473628456429
H         6.84005566025343       1.60332373481631       0.11133605261504
C         2.73814264653745      -2.14902898341017       2.15236178018126
O         3.80076329437597      -1.66982101886925       2.48508545542387
O         1.55829976203061      -1.88914693830538       2.42637156101836
C         2.83021674248834      -3.31334849889916       1.00448530665054
F         1.80830520452966      -4.19525354600306       1.07629599338142
F         3.96122066521913      -4.01723854740271       0.95752293315842
F         2.69073609196849      -2.71525206941086      -0.22143630047373
