61
C17H24F18NP optimized with DFTB in AMS.
N         3.08973323314950      -0.95100145595338       0.44802599165331
C         2.62850697168318      -1.85298247607085       1.55734932796628
C         4.21035351947743      -1.69521256103533      -0.25241546725619
C         1.99658506295784      -0.66582043831554      -0.53540941590024
C         3.86546814720443      -2.64850663140359       1.94448816502393
C         4.53928898100996      -2.91613384676113       0.60139010036382
C         3.61687195394220       0.31910164961803       1.01962418059579
C         0.78054316316093       0.03927050417696       0.06275252790896
C        -0.32056646476020       0.14965987379457      -0.99925533221171
C        -1.55100447915021       0.87105288721270      -0.44085787374145
C        -2.65509175132431       0.97943145679035      -1.49747680383043
C        -3.88331090078203       1.69977520205160      -0.94461762695413
H         1.85276322698042      -2.51070396169779       1.15780928110491
H         2.21743200633365      -1.25249085289544       2.36849831874532
H         5.05898688703330      -1.02174780318198      -0.34344488593560
H         3.87666067877226      -1.97332749065444      -1.25254972526899
H         1.69472440478777      -1.62623062786608      -0.96197422443403
H         2.43648655356609      -0.05332058230160      -1.32678246232538
H         3.59173317065677      -3.56916232833474       2.46039755211046
H         4.51692765319225      -2.06144205924247       2.59424754039329
H         5.61799485016748      -3.03117488737559       0.70597318926009
H         4.13095739362664      -3.82078569824378       0.14374274359559
H         2.82971041371680       0.82392414224593       1.57486830158374
H         4.44309166960936       0.08614788179173       1.68423107781634
H         3.97060904233270       0.95040016623603       0.20780161650101
H         0.40181301970978      -0.52146493417185       0.92165927340764
H         1.05038262117762       1.04216802876282       0.40296465698168
H        -0.60327469397129      -0.85345672391226      -1.33580249526417
H         0.06522263711105       0.69753057183170      -1.86519613955242
H        -1.26333603525375       1.87364410487983      -0.10697032713973
H        -1.92859468171383       0.32429062295043       0.42996345456538
H        -2.27289564933876       1.52435548194506      -2.36706610711233
H        -2.93934676432106      -0.02460611412461      -1.83002539163724
H        -3.62285823304321       2.70982208801204      -0.62582310118694
H        -4.65337748376925       1.76552334859165      -1.71310786812462
H        -4.29077291377467       1.15958163672450      -0.08905467154559
P         7.88144383824668      -0.09822650724613       0.55051566742366
F         7.22797283802484      -1.51823913337609      -0.10695573377365
F         9.39754544744862      -0.76529174203685       0.65014072247893
F         6.30553372516014       0.59562502577937       0.43492057341938
C         8.22500518357541       0.34660368370987      -1.33178954846072
C         7.40822784022718      -0.92488370392840       2.32364935329851
C         8.45522744164026       1.59810318875898       1.44707172631700
C         7.01803108423765       0.66557807287089      -2.25673451410985
C         8.33370152666059      -0.86275260104353       3.57889496381200
C         8.66061809047540       2.98987139108515       0.78450146129458
F         8.85136262379763      -0.69739938634774      -1.89806088842156
F         9.06122161152409       1.39725804547782      -1.41641485089512
F         7.23655338998843      -2.25039553134564       2.12814625423705
F         6.19763597149523      -0.46991524147148       2.74537033968128
F         9.57850619783825       1.34243334169626       2.14007731856439
F         7.46851116797992       1.80030281156244       2.35398710726981
F         7.41305770046041       0.77841776123168      -3.52279236669724
F         6.40560560607414       1.79639118205599      -1.91868040077072
F         6.09750492100600      -0.31196199990954      -2.21395788085296
F         7.91845501317175      -1.79336441716088       4.44976699847227
F         9.59751463373098      -1.12924975533608       3.27989227711937
F         8.27761185784664       0.30570308342375       4.20355139271613
F         9.85884510714468       3.10348730843805       0.22826027253121
F         8.55212833663707       3.94638080532231       1.70877714912254
F         7.72948505835107       3.22337844321628      -0.14099586973263
