55
C15H20F18NP optimized with ForceField in AMS.
N        -0.04402207284359       0.21970008272642       0.15570985027017
C        -0.95787708292372       1.21113098040136      -0.49592241311103
C        -0.49716440217695      -1.17367344305342      -0.14232822641834
C         1.31872681312242       0.44870975181020      -0.43007253508331
C        -2.45177722331047       0.99976334234193      -0.18392932460792
C        -1.97578540713523      -1.42618021085335       0.20170946557733
C        -2.87842974986674      -0.42633382027926      -0.51231353936802
C         0.00239538761246       0.46018615088589       1.62421180164537
C         2.45257095263641      -0.43884410507959       0.13854397567175
C         3.78267287634554      -0.11641632149918      -0.53907090939966
H        -0.85165199816350       1.16280078609316      -1.60507636912341
H        -0.68055802367065       2.24763045170965      -0.20067451840393
H         0.09949097777271      -1.91680910891214       0.42867058535264
H        -0.35391725904842      -1.40258018306114      -1.22368200110974
H         1.61858044737662       1.51246469602846      -0.28111884295745
H         1.28929774341009       0.28797513113264      -1.53310699694905
H        -3.05116888246262       1.70420568477065      -0.80029768364230
H        -2.67948472795325       1.23252381644793       0.87592017850326
H        -2.13671834628262      -1.36987201651111       1.29906348878736
H        -2.25216742931223      -2.45370548636174      -0.11926956137345
H        -3.93126698715206      -0.58174909244737      -0.19290478140422
H        -2.82268703621587      -0.58996125022264      -1.61114369509311
H         0.55006130067986      -0.34878304591990       2.15277412577481
H         0.49748681098624       1.42935615937712       1.85556631375173
H        -1.00526417924953       0.48743516040718       2.08180792463826
H         2.58247555550064      -0.26533645121265       1.22635781658139
H         2.23843195674248      -1.51300718209035      -0.03379721838001
H         3.71607436570681      -0.30511264388801      -1.63171368881074
H         4.05678991661085       0.94627093797488      -0.36640933763530
H         4.58222458807559      -0.76071071865924      -0.11633823598959
P        -1.84094662824507       4.22828055256987       4.36538584649660
F        -0.74710117037267       5.44821149463019       4.89374052331294
F        -1.08139892143975       3.11779145093292       3.28968600730438
F        -2.72737651398696       5.01453106885526       5.61290434496558
C        -0.70175619062514       3.21036639771074       5.55957151946854
C        -1.74177125959106       5.52440917188849       2.93197536475390
C        -3.60173913012848       3.46255175942144       4.13894434763044
C        -0.60581727591421       3.68194577695018       7.03629111639476
C        -2.48725082685283       5.18548131781044       1.62494731148054
C        -4.05011464152978       2.41839269351356       5.18010278157911
F         0.59685454752216       3.22337888651115       5.06424975422418
F        -1.10724652131712       1.89087228339348       5.57256481441938
F        -0.41145887454082       5.71331298184909       2.56782925842682
F        -2.24494652252390       6.73592363223956       3.38487903285517
F        -3.65249396032085       2.82040850970132       2.91490539645085
F        -4.55433337628550       4.47209667016440       4.11363351119344
F         0.10611400099772       2.73923553630940       7.75694770117887
F        -1.84255495783206       3.81516737219354       7.62994944625838
F         0.07233355621046       4.88332646978912       7.14068851564049
F        -2.17149964376490       6.13973257101132       0.67360004150476
F        -2.10210580882416       3.95588195083482       1.12984522802596
F        -3.85647566096991       5.21303384682548       1.79645249514042
F        -3.40548127199075       1.21340324319535       4.97346801057245
F        -5.40750757216416       2.19232138094820       5.03238816203900
F        -3.83432253112157       2.84700462989433       6.47061877228954
