40
C12H22F3NO2 optimized with ADF in AMS.
N         0.62026464979471      -0.21495679794526       0.18593244097126
C        -0.19482821309733      -0.41855061421700      -1.08657485298361
C         0.45958239837812      -1.44479593148200       1.07585237568691
C         2.07622688696174      -0.12355300643422      -0.25543012453974
C        -1.65293650395252      -0.74660556801783      -0.81724591721757
C        -0.99352855013538      -1.79162425225231       1.35567828176424
C         0.17871581986722       1.01289281840717       0.94860652977833
C        -1.76382759420943      -1.99821800248882       0.05277413831124
C         3.08435707380516       0.10829300792994       0.85634518220590
C         0.42733053493425       2.33553698579492       0.24986593813159
C         4.47901723839979       0.26496213399512       0.24553685812510
H         0.29185862610406      -1.26835323304075      -1.59365375111420
H        -0.07013780932999       0.49206468826464      -1.68898239194210
H         1.01705639308453      -1.23532226807373       1.99856333134708
H         0.94544376418175      -2.25624886184732       0.50478287353548
H         2.11512195398808       0.68536058355361      -1.00162030755962
H         2.26004483416987      -1.08711118098074      -0.76577272400379
H        -2.12617012172601      -0.91386404911985      -1.79963439142244
H        -2.18689925152260       0.10346346832271      -0.35545420026559
H        -1.48504226284697      -1.02739562386144       1.98354575764110
H        -0.98278903325294      -2.72115519071850       1.94869653970451
H        -0.89014933478256       0.88291130955433       1.15617314396557
H         0.70784852530682       0.97536696769169       1.91147956828867
H        -2.81895948838462      -2.23813515231243       0.25764824563789
H        -1.31790168971888      -2.84802722833290      -0.49292522210220
H         2.83960404518699       1.00759221888356       1.44769147391020
H         3.09305627187462      -0.75549655908407       1.53927338505497
H         0.03701552166118       3.13821439529330       0.89397055926474
H         1.49671631327641       2.52952545595456       0.09012420003988
H        -0.09648091935191       2.40790102886241      -0.71362203487773
H         5.23083129413079       0.41520282473985       1.03354804083527
H         4.75427900638257      -0.63454251734316      -0.32230102498846
H         4.52052767458028       1.13117369763229      -0.43404991439229
C         2.15611591904381      -3.99086635864915      -1.32836945900878
O         1.93828505563623      -5.12500236322585      -1.75968971720096
O         1.42580918182240      -2.94898352092735      -1.28289136137554
C         3.58136355356736      -3.73231521257968      -0.71111882627791
F         4.25938252215349      -2.75073793428194      -1.40887795920886
F         4.38985077217399      -4.81757624698141      -0.67959232190677
F         3.49691235554493      -3.26859529558241       0.59580999018825
