41
C11H22F3NO3S optimized with ForceField in AMS.
N        -0.51307830622210       0.00770322442270      -0.00079659184315
C        -1.43815751737115      -0.56102061582721      -1.02924316166950
C        -1.40850139113774       0.61975232220436       1.02866679759434
C        -2.84133434186517      -0.06590969278114      -0.73478685462722
C        -2.83043503978766       0.17308031252240       0.74836610470025
C         0.34541879655868       1.06347864397166      -0.63154297589901
C         0.29456012961060      -1.08731471544524       0.63001274852681
C         1.36874197730024       1.71667976906732       0.32861218633940
C         1.27844608925558      -1.79414988541052      -0.33261837544298
C         2.08477446047784       2.88267576642780      -0.34714493422410
C         1.96766296101921      -2.96968550568182       0.35333173356289
H        -1.15522766128691      -0.29313527590168      -2.07285994182215
H        -1.47763603238814      -1.67388436827987      -0.99147227656444
H        -1.12743261740387       0.35189980565584       2.07276193715332
H        -1.40682351614276       1.73311903307230       0.98002749876748
H        -3.02576876372054       0.89081038865995      -1.27201359879574
H        -3.61394139816651      -0.81209313483607      -1.02288614274665
H        -3.04188283614363      -0.77706586754274       1.28734521994599
H        -3.57442691419239       0.94501346669057       1.04364517046941
H         0.89882754751377       0.64970928640483      -1.50318004759467
H        -0.30400683566442       1.86608889773530      -1.05314555621571
H         0.87278041234904      -0.69684405199316       1.49642786105910
H        -0.39114113422935      -1.85575877517466       1.05748664309990
H         0.86815887365746       2.09601429428128       1.24357610111123
H         2.14021891723854       0.98024577836715       0.63429800515718
H         2.06733845693097      -1.09136877878392      -0.66276279407756
H         0.75274987637184      -2.17228192895949      -1.23362648870429
H         2.64140220686321       2.52660970585858      -1.24008336758525
H         1.35360180188436       3.65993413203821      -0.65574554035528
H         2.80714723453192       3.33805684125722       0.36286938960950
H         2.54180575479298      -2.61689367661940       1.23653656618324
H         1.21760818439073      -3.72199574746604       0.67751090112325
H         2.67191797994423      -3.45332673558333      -0.35633679664267
S         6.08033945864772      -0.80589492053718       0.44806444164944
O         5.53112628638163      -0.16612889237574       1.73147223693618
O         5.61181938272287      -2.26430408853380       0.55659916168943
O         7.58777326218467      -0.90308069377333       0.72528588747834
C         5.63352353853644       0.04135216029508      -1.09371772764312
F         6.13307554113240       1.32889950773990      -1.07506521773880
F         4.25969731067979       0.08655546638528      -1.21597480056455
F         6.16703714584562      -0.64339963315141      -2.16821450009985
