38
C10H22BF4N optimized with ForceField in AMS.
N        -1.45243721992499       0.39914908428535      -0.07907754264001
C        -1.75656810111427      -0.88393538268719      -0.77894729393389
C        -2.53650632314226       0.57439351936072       0.92724085523139
C        -0.13489473750479       0.34368390451528       0.62609111792835
C        -3.02581623634257      -1.47220834830146      -0.17896038252189
C        -3.69163471514249      -0.31839869162979       0.52316439571441
C        -1.49437918077897       1.53606561848141      -1.03542209131403
C         1.09682559265046       0.29107532345535      -0.30893721245766
C         2.36035036470621      -0.07704733806160       0.47983979976545
C         3.60065320142898      -0.05999452216904      -0.42002760850539
C         4.85319921942121      -0.44621364806900       0.36219664281545
H        -0.94256749877994      -1.63639603725486      -0.68175452203391
H        -1.91900085578917      -0.73826189047034      -1.87247379881494
H        -2.87938965923426       1.63107374377728       1.02266410114240
H        -2.21376433335270       0.25717800158719       1.94682060315731
H        -0.11172614769158      -0.54872405726234       1.29453349313708
H        -0.02139191928177       1.23517893393002       1.28562031043601
H        -2.76040518498149      -2.25707315539120       0.56443478487939
H        -3.68767290766638      -1.91099850329931      -0.95698399598302
H        -4.35984052090912       0.22099582019488      -0.18349437362486
H        -4.27697599147846      -0.65963302014651       1.40509079326652
H        -0.80516493838446       1.37231362102032      -1.89190072223354
H        -2.51601422098590       1.66203558211467      -1.46044107072079
H        -1.21111168389415       2.48812523880456      -0.53430477667329
H         0.94908842135522      -0.45293344522301      -1.11931312678370
H         1.24849547919090       1.28702289307893      -0.77656105654590
H         2.23662839533366      -1.09388883285600       0.91407239171443
H         2.49996588583635       0.64827291788312       1.31217532109438
H         3.74103301931114       0.95825963712526      -0.84433840981122
H         3.46588984539854      -0.77698527099818      -1.25928645584489
H         5.02115723669480       0.26568711286760       1.19844962175016
H         5.73596643642045      -0.41810710361488      -0.31068706172684
H         4.75138022183604      -1.47445404732330       0.77090081281216
B         1.13130025563496       5.16797840815269       0.57708419964273
F         1.09980076409372       3.81634165134465       0.14526639892874
F         2.45597817789953       5.66823451982243       0.46685147043654
F         0.70786209039493       5.24230917490971       1.93069620589306
F         0.26240703947258       5.94514801074658      -0.23438666927618
