33
C9H14F2N2O4S2 optimized with ADF in AMS.
N         2.47353474918498       0.28714163831414      -0.34593568459897
C         0.07897343342883      -0.16612941891678       0.12327690531536
C         1.44605693293119       0.15689941483092       0.71680646813203
C        -0.97596794566118      -0.32255445502607       1.21954579399673
C        -2.35843839127142      -0.64529474978654       0.65648041277585
C         2.84313373939762       1.50886693318379      -0.78497226103946
C         3.02314447977367      -0.83270145072081      -0.86222116549421
C         3.77387030299970       1.64237819726768      -1.79499021220058
C         3.96368181572511      -0.74800118371162      -1.87072777929454
C         4.34247877456126       0.49988237894248      -2.35030960879042
H         0.14353186636904      -1.10004357900105      -0.46374928014105
H        -0.21983580132095       0.63483618993087      -0.57816601523513
H         1.81102735501153      -0.62444387977962       1.39898089085267
H         1.43988533849193       1.10554397373613       1.27020539877061
H        -0.65771050373559      -1.12144761946897       1.91238449799542
H        -1.02417048159757       0.60673077387122       1.81452506049501
H        -3.09647898973905      -0.76153523556312       1.46460538488857
H        -2.71407053204989       0.15638933205261      -0.01002252747437
H        -2.34316737712958      -1.58313171288880       0.07948324148584
H         2.38257446308273       2.35860262201591      -0.28556099680020
H         2.71949367795655      -1.77188771038811      -0.40665956233571
H         4.07275046088945       2.64041381234886      -2.11435101909602
H         4.41353633670581      -1.66629064425946      -2.24634306342275
H         5.09562982082752       0.58450014942275      -3.13469629861287
N         5.62842421248618      -0.92544728473373       2.65236597298021
S         4.92530239498584      -2.19629997540835       1.99413254409661
S         5.39174347167072       0.55436056946681       2.09768683600414
F         5.55829211934330      -2.26485433818936       0.44692809656231
F         3.78368269129440       0.87653935731265       2.49513514937503
O         5.41585509266475      -3.38999480752331       2.64033278112986
O         3.49062226025388      -2.05799572603787       1.72533604963555
O         5.37444005668439       0.69239118968149       0.64605655373774
O         6.14250078378486       1.47969155622525       2.91418368980678
