31
C9H14F6NP optimized with ADF in AMS.
N         0.29553418768132      -0.19615712573699       0.78405477181226
C        -1.88677305860012       0.38304843003808      -0.22933717563045
C        -1.04320633035574       0.40264691681595       1.04220428625419
C        -3.34449294968633       0.72506225478538       0.07798121745575
C        -4.21276499876824       0.66795516398190      -1.17644081179297
C         1.27483232266575       0.56925197144008       0.25020961664767
C         0.48787553897451      -1.51181740498645       1.02254672499097
C         2.50378930667455       0.02456350779424      -0.06223172715962
C         1.70635836039376      -2.09939980525470       0.71902517140979
C         2.72746672183489      -1.33328447897281       0.17196479866008
H        -1.84299926846517      -0.63208094148038      -0.65582121102840
H        -1.46914865555435       1.08436111754067      -0.97533719273972
H        -1.50726364981627      -0.20353954065624       1.83262497521706
H        -0.87032216909670       1.42343641582025       1.41505577295753
H        -3.71886855037480       0.00042582296199       0.82021690399745
H        -3.40669865265817       1.72826936475954       0.53674613087275
H        -5.25983386339585       0.91354391067920      -0.94164285917614
H        -3.86201875886767       1.37612471418701      -1.94457222665798
H        -4.19662755305731      -0.34410950507510      -1.61008932671353
H         1.02731732531063       1.61755927635236       0.09353768813796
H        -0.34524172179343      -2.06629682021291       1.45432366451862
H         3.27907146172893       0.66467660539305      -0.48313473219953
H         1.82459125739974      -3.16332790827424       0.92712975345243
H         3.69205988012263      -1.78311177941251      -0.06948436783691
P        -2.67576707113640      -3.08508480983266       2.39826151097593
F        -3.52816830745768      -4.26993544589227       1.66986260062366
F        -4.02262962475177      -2.17081309729860       2.61917918183598
F        -2.83396308546000      -3.78211144567388       3.86239852755106
F        -1.75254975434926      -1.84234238469664       3.09279228647894
F        -1.24377769765992      -3.90692334076490       2.12945900402192
F        -2.44342905398154      -2.33591313552843       0.90093087666324
