28
C10H12F3NO2 optimized with ADF in AMS.
N         0.74334500917830       0.10364910731391      -0.39528223385965
C         1.44238886281319       1.28085066055895      -0.95201178782533
C         2.63198783168395       1.73712559649192      -0.09028069039643
C         3.98351044177652       1.28606230213625      -0.63983554580787
C        -0.10211250946229       0.29962080181864       0.65303947241946
C         1.04542695665137      -1.14739075278096      -0.81667777779736
C        -0.80313246485068      -0.74295587577724       1.19712246129193
C         0.30093830686290      -2.22944833098692      -0.33175992143655
C        -0.62198958430449      -2.03220044112447       0.67026962014237
H         1.76143326207846       1.01243347199033      -1.97027303120223
H         0.67877859243777       2.06823997872060      -1.04291236064619
H         2.49316698811098       1.34145057894427       0.92995144980100
H         2.59999394392618       2.83758401012515      -0.02181289730468
H         4.03316606654702       0.18992755746724      -0.70746953327364
H         4.79754195764302       1.61254661216410       0.02408579178219
H         4.16494872453744       1.71863833476893      -1.63738597688439
H        -0.19657196037027       1.32624221255581       1.00007547445014
H         1.70064689932300      -1.22276711254843      -1.67728481470594
H        -1.48642777942468      -0.55391741199389       2.02323586278909
H         0.50364647483208      -3.21921683872854      -0.73801871876420
H        -1.19467478856574      -2.87123259216839       1.06704910054771
C         3.09540909010441      -1.45330295496334       1.31865076785603
O         3.08608624517301      -1.79487245285277       0.09294370423438
O         2.23245892576424      -0.88121291924122       2.00504668201727
C         4.45404661657844      -1.79655087140143       2.02093537895798
F         5.47110789535639      -1.03442317605601       1.49652797228093
F         4.80164291083353      -3.10677645000873       1.84744022609446
F         4.43105310716596      -1.55901948682373       3.35894096393951
