41
C13H25ClN2 optimized with DFTB in AMS.
N         1.33395936984992       2.19998476716298       0.08411692592799
N        -0.79834021273500       2.32420500841366      -0.18338179292392
C         2.73145582801547       1.86809493699838      -0.15390350440203
C        -2.12963811054045       2.19988662811946      -0.77550586183523
C         3.02949406995022       0.46051108988955       0.37602753802774
C        -2.42660531803911       0.73073004292016      -1.08647221351452
C         2.17929613992847      -0.60978561209834      -0.31479974410407
C        -2.31941111471468      -0.14771049311940       0.16370312915546
C         0.34782783676383       2.07240249208652      -0.80931179345967
C         0.79323522339605       2.52224756609998       1.30320574453504
C        -0.55190044133176       2.60364681068552       1.12999075982692
C         2.48620763613753      -2.00623584326930       0.23544242413357
C        -2.73643230813990      -1.58999297884631      -0.13317917749008
C         1.60029501789914      -3.06277192570893      -0.42142210442268
C        -2.59712511161241      -2.46685076860441       1.11008824522035
H         3.35130779924182       2.60758989638463       0.35976019632848
H         2.91735137537067       1.92820393117684      -1.22958622652058
H        -2.15927244756172       2.80438504765041      -1.68607056249088
H        -2.84333000887008       2.58380861946640      -0.03766393227369
H         2.84516440922161       0.43951268426217       1.45413760957250
H         4.09120169284791       0.25802232714465       0.20938490025503
H        -3.44395499900224       0.68314045480555      -1.48501753425217
H        -1.74108129422990       0.37039636875114      -1.86257803276036
H         2.36940258671305      -0.58725607744745      -1.39353076629000
H         1.11831268962918      -0.38830400186678      -0.15779530389018
H        -2.95461584846429       0.27075083318687       0.95076274901244
H        -1.28510683356713      -0.13749273382700       0.52683398151010
H         0.46975278487599       1.82940531050462      -1.85062561645168
H         1.40492239337721       2.67059976962436       2.17523949875248
H        -1.37833178950805       2.79289343953653       1.81207358892491
H         2.31990731281598      -2.01252923048798       1.31760856722322
H         3.53945575237046      -2.24580731539377       0.05596687709554
H        -3.77645951631611      -1.60581923263071      -0.47496111782643
H        -2.11266176374866      -1.99583971561494      -0.93879331022435
H         1.76057872201512      -3.08062842657556      -1.50020372248528
H         0.54789693777313      -2.84998562468638      -0.23003524337892
H         1.83449853972745      -4.04760906791257      -0.01799567460681
H        -3.22275097749777      -2.08366224013326       1.91650814491819
H        -1.56083503733426      -2.48196880724976       1.45251071589327
H        -2.90376757628985      -3.48873964708601       0.88540984943435
Cl       -3.46416294621684       2.49067451738846       2.15709004115597
