24
C6H12F3NO2 optimized with DFTB in AMS.
N         0.27627581677543      -0.09110577900355      -0.23059592123228
C        -1.00180005792570      -0.82584495490636      -0.05356142616324
C         0.69938003656593       0.50503154974873       1.06219135078336
C         0.08886155596828       0.99124404818777      -1.23515128238656
C         1.32885081795898      -1.03705620755852      -0.70170543920119
H        -0.86124265015812      -1.60819045823751       0.68996629454685
H        -1.77303485657850      -0.13182098377574       0.27639278106038
H        -1.28225549595691      -1.26852456278628      -1.00733689191263
H         1.63216431718221       1.04342094268216       0.90643788799872
H        -0.07186956329762       1.18884899920631       1.41271266480827
H         0.84921718873140      -0.29236970269272       1.78768364527137
H         1.03846672049965       1.50131615109184      -1.38018933083237
H        -0.22487156344303       0.54468574772399      -2.17570923247611
H        -0.66665580570812       1.68633574252715      -0.87305293455378
H         2.27211291362065      -0.50567722300342      -0.78933568738878
H         1.42642162488864      -1.85212568188401       0.01117968877889
H         1.05275921577332      -1.42566906307752      -1.67770751554244
C         3.59425309756952      -1.21910061593344      -3.40921901044849
O         3.22732510772223      -1.83535786181869      -2.41552171432704
O         4.40482716355928      -1.37321681006037      -4.28609315502071
C         2.70587788521279       0.20839263854077      -3.54920850550017
F         2.96125628479168       1.00635108455099      -4.58556459695556
F         2.84318902566999       0.98762283395135      -2.42492894652793
F         1.35913952467802      -0.05779557377293      -3.59422661037857
