41
C11H24BF4N optimized with ADF in AMS.
N        -0.86570973767962      -0.19010851684016       0.05984338840268
C        -1.23426311616937      -1.09983001707368      -1.10565431003032
C        -1.94377461662286      -0.50389289486787       1.07058127148013
C         0.49678625487598      -0.52953719306912       0.61454969050359
C        -2.76301731892060      -1.07508814095144      -1.15742044897062
C        -3.22790652030835      -0.62343303465243       0.25350070497541
C        -0.93683210190737       1.25612855211108      -0.40867905022064
C         1.64413243420341      -0.22508498517304      -0.33327749963299
C        -0.67612431066078       2.29958388549122       0.66231489277227
C         2.93918093321710      -0.88364894633791       0.14608834318805
C        -0.70759234537954       3.68859485342333       0.01710135759668
C         4.10576013124543      -0.56910675692460      -0.78786123863653
H        -0.75346805496723      -0.72204640861915      -2.02001351711104
H        -0.84475426727228      -2.09499683976541      -0.84107726939554
H        -1.66477280621411      -1.46869423696101       1.52241071672386
H        -1.95173321023053       0.26813619054321       1.85012977795070
H         0.45803760689197      -1.60730417988923       0.84574756364032
H         0.60117678441140       0.01492908771368       1.56591585564504
H        -3.09156478074439      -0.37557145970719      -1.93876953264345
H        -3.14378005562848      -2.07325390406361      -1.41582411471078
H        -3.91006699656538      -1.34427419815314       0.72672927570765
H        -3.75436605525157       0.34149957044304       0.20513864492830
H        -0.21449339335726       1.34409334147988      -1.22822035501011
H        -1.92330524173103       1.38719399173999      -0.87340217427988
H         1.40571372017986      -0.57047508404986      -1.35157988570541
H         1.79494863577673       0.86370662143531      -0.41418004393309
H        -1.43163024881140       2.25063545872813       1.46630274064610
H         0.31162354722773       2.13936895271815       1.12809735144127
H         3.17604768904073      -0.54443500291001       1.17179699195338
H         2.79158089675749      -1.97812968811456       0.20208576098969
H         0.02734787063236       3.75539843302441      -0.79837863793149
H        -1.69313542192635       3.89008121323874      -0.42920248037589
H        -0.49645909182430       4.46704283616053       0.76355326841311
H         5.03181741860860      -1.05578047683963      -0.44995795614006
H         3.88873339162603      -0.91284399027521      -1.81123718324686
H         4.28767666703861       0.51586744625623      -0.83651522674436
B        -0.52489998650360       1.45184994913555      -3.74283493516911
F        -0.21315882011660       2.66414420160628      -3.06164515454506
F        -1.85027819245031       1.03973545837046      -3.36590687508212
F         0.39107415898277       0.42943730923352      -3.25929059423119
F        -0.41226169537288       1.58614396018550      -5.12369894791170
