23
C7H12N2O2 optimized with DFTB in AMS.
N         0.97651849312645       0.08153633827042       0.07979147575544
N        -1.26023636747629      -0.05319401867656      -0.31740659538278
C        -0.17263878889999      -0.76411811463058       0.31856155553625
C         0.47162994644745       1.37115441022229      -0.22445607987761
C        -0.83489756074449       1.29299336813549      -0.45673393757693
C         2.08062300329264      -0.00566073954298       1.03304090333969
C        -2.60601092454412      -0.28810241260961       0.20160207564406
H        -0.03639815782743      -1.76464266827776      -0.11206511721898
H         1.14914634606656       2.20397346883159      -0.30482836084555
H        -1.53652334797185       2.04230396404941      -0.78095419649158
H         2.28795261467786      -1.05699228484236       1.23141232179980
H         2.95881417930885       0.45391731321287       0.57843067232761
H         1.85111107072946       0.50812514597258       1.97168229067426
H        -2.77188707407193       0.22411825288324       1.15394238805350
H        -3.32280161449106       0.08153273206258      -0.53254904138373
H        -2.74822465546616      -1.36077066553510       0.33187570779731
C        -0.85218304981333      -0.79381643816334       4.00959660350776
C        -0.62816448284261      -0.13529690380224       2.66430928607800
O        -0.64827566048274       1.05105954968810       2.49001406444475
O        -0.40724630873389      -1.06676903761759       1.73310450985465
H        -1.04975092911572      -0.03393824271314       4.76144205013146
H        -1.69602946934509      -1.47803273282216       3.93975316572971
H         0.03327024807741      -1.36570830959512       4.28129003510287
