47
C15H29ClN2 optimized with ForceField in AMS.
N         3.07978743693130       0.89565564005955       0.02335409699248
N         2.90726988894300      -1.31125433980328       0.26353399030455
C         1.50212764290066       2.76655570076234      -0.31962655246470
C         2.85127543782746       2.31983862923300       0.26516693833449
C         0.97029431985504      -2.60000022560416       1.10811233162222
C         2.47662544631218      -2.60305602965043       0.79970967733712
C         0.32082237881666       2.10298606745595       0.40459521129355
C         0.12826455756878      -2.29711785292522      -0.14149881390565
C        -1.02332155408556       2.54981990515576      -0.17866492866377
C        -1.36769828136633      -2.25841156293569       0.18869390071554
C         2.81032868858757      -0.11365813374897       0.87522257645345
C         3.36590690303195       0.31739708997633      -1.16081566065470
C         3.26704665617984      -1.05101809354375      -1.00999735139423
C        -2.18597089504809       1.90790269829049       0.58907485536337
C        -2.18357808380294      -1.78449381016045      -1.02105250114295
C        -3.52436198554883       2.19780227737270      -0.08157070637512
C        -3.66802557771690      -1.68978244992339      -0.68262774884107
H         1.42007592301760       3.87075239284305      -0.21824171910814
H         1.46907585256147       2.51997122424718      -1.40342857247490
H         0.75954599187174      -1.84389939305581       1.89593852375197
H         0.68588625459436      -3.59640046057038       1.51164817220719
H         3.67009951292541       2.90779964780676      -0.20316131649544
H         2.87373770842883       2.52962631509129       1.35740864313345
H         3.04246788133691      -2.81936918301733       1.73115558159746
H         2.70088085912595      -3.41414659271444       0.07224081219785
H         0.36063153368168       2.35865185762983       1.48631274786609
H         0.39482906929367       1.00031070743483       0.30029140800112
H         0.31743752861883      -3.07488111907098      -0.91345875254500
H         0.42633777065643      -1.31157758870231      -0.55819717954593
H        -1.10997600558766       3.65686803697817      -0.11633757362731
H        -1.07102131842264       2.24910781418458      -1.24877060773430
H        -1.53910179309475      -1.56419821237365       1.03994287637128
H        -1.70416964070383      -3.27454024833155       0.49031065096353
H         2.45575912236178       0.02510405241747       1.88906855391132
H         3.56054674166758       0.85163837994933      -2.08178476530646
H         3.36861206667823      -1.79288471859053      -1.79149278467334
H        -2.04440828653146       0.80815241496219       0.63904305125304
H        -2.20908335546451       2.30149016521930       1.62861959042731
H        -2.04948249871045      -2.49449624687146      -1.86617641526851
H        -1.82825390365342      -0.78204678085502      -1.34695481596934
H        -3.71625708637427       3.29133893201922      -0.10015069836796
H        -3.52901000934775       1.80379948186865      -1.12036315520942
H        -4.33855326985385       1.70160329406671       0.48766303167635
H        -4.22694717947705      -1.31422625979179      -1.56553371604077
H        -3.82853002379800      -0.98714434294173       0.16243468248398
H        -4.06422178344526      -2.69003612580888      -0.40747981381586
Cl       -2.06359425894136      -0.05667031583348       3.84902601696616
