20
C6H11ClN2 optimized with ForceField in AMS.
N        -0.54533787424624       0.18186890253230      -0.31950555874715
N         1.65556728072766      -0.09332091521103      -0.16974869185019
C        -1.96157389395110      -0.08925624597764      -0.55544499269989
C         0.47759529134200      -0.68668233653038      -0.44329567971981
C         0.00466004901579       1.36043012147292       0.03688844218749
C         1.37126691136786       1.18939287524757       0.12790688210723
C        -2.71311180201786      -0.17894511369757       0.76731358810942
C         2.97719699328968      -0.70733498832313      -0.18992391561587
H        -2.39735118038546       0.71925866447143      -1.18168545302809
H        -2.07898388062100      -1.04952739425113      -1.10312046415018
H         0.36607558704324      -1.72730547632780      -0.72203094095733
H        -0.54585420604820       2.27640039753274       0.20943148947965
H         2.10242889450659       1.94364184609937       0.38928695404959
H        -2.28805278473326      -0.99488108444725       1.39019177524526
H        -3.78450238018719      -0.39785570860748       0.57413145803338
H        -2.63817045623731       0.78114850422537       1.32055508632308
H         2.90207675607104      -1.78516723286755      -0.44761672607589
H         3.61319860295607      -0.19908215876255      -0.94457069272248
H         3.44955179210171      -0.61072728245208       0.80990116543980
Cl        2.42806237460597       0.52861250637390       3.62198218679198
