25
C9H10F3NO2 optimized with ForceField in AMS.
N         0.16018604616324      -0.00071995751954      -0.38260677473426
C         1.60834655076031       0.00041714872907      -0.61793577412803
C        -0.50727202631914       1.18649835412073      -0.25331630558934
C        -0.50421121330262      -1.18911284578284      -0.24819009531376
C         2.35312602168160       0.00162455216126       0.71255174993545
C        -1.87789237059810       1.20326790271695       0.01662399216120
C        -1.87474716217901      -1.20835966926594       0.02178645558498
C        -2.56334006579023      -0.00316532983848       0.15518752238629
H         1.90784095167455      -0.89334958757510      -1.20933421309447
H         1.90688010977145       0.89369882233821      -1.21071545675219
H         0.02120055412244       2.12785896834412      -0.34791141084059
H         0.02671342494150      -2.12949885545267      -0.33875741179244
H         2.09115167398603       0.90990162363268       1.29532350452570
H         3.44660544335866      -0.00410113666189       0.53346656695751
H         2.08390870015807      -0.90058060969746       1.30135824190961
H        -2.40169899983867       2.14441314835899       0.12335338390850
H        -2.39603225739767      -2.15045057829109       0.13250458799460
H        -3.62405107810773      -0.00413209771724       0.36901649699003
C         5.15780526356416       0.06471586332142      -2.32858540538966
O         5.43180725586713       0.18508446606113      -1.14539102767457
O         4.78918736674090      -1.01778036904208      -2.75514266510839
C         5.28615724100790       1.23254694394546      -3.26060821751296
F         6.29531994278705       0.98381958413643      -4.17222916398850
F         5.58809768793374       2.38593958368092      -2.55714100427738
F         4.09579983201444       1.41933399969694      -3.93927257825730
