41
C11H24BF4N optimized with DFTB in AMS.
N        -0.52272882803236      -0.02682234086368      -0.21146923812579
C        -1.50853222524306       0.38949398324737      -1.26847016025629
C        -0.80617697551573      -1.45641887876094       0.16680270483059
C         0.83837778395915       0.04999956844160      -0.85664802897582
C        -0.59035983263661       0.83427923382721       1.01389558317180
C        -2.95686838856249       0.22361420479451      -0.83153563449398
C        -2.24694909413832      -1.68825121124611       0.60680612635180
C        -3.23371344809453      -1.23261458256126      -0.46529738678354
C         2.01547979963139      -0.30776827937913       0.04585568857289
C        -0.29008829049773       2.30822939674933       0.78195620409562
C         3.23326778263902      -0.60261380878467      -0.84096556290737
C         4.45679554627270      -0.95732842200790      -0.00021919027694
H        -1.31183764719176      -0.24447757843653      -2.13726252013614
H        -1.29508771873379       1.42586329082843      -1.53528293769653
H        -0.12413969670931      -1.72984408562578       0.97364593559636
H        -0.58251093010686      -2.06275540023495      -0.71388601737545
H         0.95466576416097       1.06288768846550      -1.24794210914133
H         0.80887720948007      -0.63806275081116      -1.70260811291883
H        -1.59236634620239       0.73373016083224       1.43398492961620
H         0.12228199108728       0.41959174870508       1.73086600860103
H        -3.58426296871614       0.51770442921950      -1.67704212400196
H        -3.19625408371915       0.88594219427188       0.00678843732467
H        -2.45320305909956      -1.18165025915863       1.55550730592641
H        -2.35742940123123      -2.76260636148735       0.77585056435736
H        -4.25718698794452      -1.33880687704410      -0.09782627876289
H        -3.11380888385486      -1.85671210832777      -1.35478836490780
H         1.79651333688565      -1.19737393500152       0.64111740934264
H         2.24507076277055       0.51242916731679       0.73392200369342
H        -0.37607178714108       2.81687662411881       1.74227200690071
H         0.71859509899620       2.46351826570315       0.40449727608745
H        -1.00066182685711       2.76104264634959       0.09296901168464
H         3.45349346868893       0.27299333589081      -1.46009866568899
H         2.98864516896037      -1.43582085805541      -1.50700129095957
H         4.25920359133891      -1.84026809155920       0.60908100239776
H         4.72354252837422      -0.13096362491415       0.66081009038417
H         5.30422814969307      -1.16838906080342      -0.65213840789910
B        -0.16503633783843      -2.30985679811189      -3.21885378211805
F        -1.44654969035715      -2.40487949935518      -2.61130293918866
F        -0.04721359408719      -3.13512339982100      -4.29327437471863
F         0.78999915656841      -2.61043945065065      -2.20921398861279
F         0.01762301790446      -0.94708045205941      -3.56583564348909
