34
C8H15F2N3O4S2 optimized with ForceField in AMS.
N        -0.67936634118741      -0.85591084522055       0.38127573438331
N         1.51250750852058      -0.48840391816880       0.30418326292092
C        -2.08080759889259      -0.78208906335179       0.79114124840222
C        -2.92307495457136      -0.03242005409333      -0.24948817761735
C         0.37007166873180      -0.26031707002258       0.98088607743086
C        -0.18296375381866      -1.48872788445060      -0.70106234219995
C         2.83787506398559       0.03840205485577       0.61922362637425
C         1.17654471247272      -1.25889073853883      -0.75019627621037
C        -2.45467986313617       1.41020311013833      -0.43841678391118
C         3.21664962879509       1.14126754156963      -0.36279585675188
H        -2.16636133124092      -0.26876084697944       1.77442787040225
H        -2.47899440579161      -1.81181027765822       0.91467673854906
H        -2.88026401741445      -0.56438269344375      -1.22438225352138
H        -3.98225425749208      -0.02420829936119       0.08636329778479
H         0.29882121332730       0.35299509309201       1.87061385544836
H        -0.76799928902946      -2.05910136049975      -1.41073508579490
H         2.84595806885901       0.45579381681947       1.64977020730941
H         3.58630568099682      -0.78203938849167       0.57376057844331
H         1.86455799420436      -1.61317395221281      -1.50658267841620
H        -1.42447633868563       1.43475385554394      -0.85311210615567
H        -2.47302834126169       1.95357582694071       0.53013480539540
H        -3.12944897346991       1.92979522995457      -1.15071959206141
H         3.25645617022616       0.73978407857610      -1.39740180120015
H         4.21380203358099       1.55134119348201      -0.09860411347636
H         2.46855793808246       1.96139811188568      -0.31836269321851
N        -1.16195140797944      -4.24151348036352       2.99514790668513
S        -1.58441137340572      -4.87677439978903       4.44307721830383
S        -1.60473757973154      -4.95705071387674       1.59132633280731
F        -0.71724248594459      -6.28458455429815       4.70520198231395
F        -3.20234433447190      -4.58262924153075       1.26108725065504
O        -1.27731547359502      -3.89205629494231       5.53480350483747
O        -3.05194179983171      -5.20209149454311       4.44989299619183
O        -1.46798523091952      -6.44968896352449       1.70719983561810
O        -0.73707364621149      -4.45291599849681       0.47422359447851
