29
C9H13F3N2O2 optimized with ForceField in AMS.
N         0.08147745809049      -0.60645627542282      -0.45889088539305
N        -1.98402721350246       0.13425628869531      -0.10436168879002
C         1.45417142662365      -0.69307167873249      -0.95441874710661
C         2.46533759088140      -0.42863476557468       0.16788922008443
C        -0.82721547236466       0.34137426101279      -0.76201799649247
C        -0.52372579861629      -1.44167529473989       0.41024810740339
C        -1.80542960284929      -0.97966730253212       0.63201124008513
C         2.31724985679038       0.97460640194298       0.75443353713360
C        -3.18219542604080       0.96228758073484      -0.14919727426116
H         1.61207835370868       0.04228045632442      -1.77368902376120
H         1.62759459541488      -1.70655301411476      -1.37608209652360
H         2.33997655201335      -1.18125864884827       0.97608609873258
H         3.49160777823708      -0.53760520898836      -0.24400856183994
H        -0.64343986786224       1.17240952729074      -1.43179911926235
H        -0.06640788175536      -2.31529714260649       0.85605626248774
H        -2.54625167656323      -1.41749835792753       1.28827692697370
H         1.33779975757302       1.08031036908717       1.26712657565826
H         2.39421389940738       1.73954011072037      -0.04581659316988
H         3.12327087900103       1.15528657608174       1.49606052387040
H        -3.03666379708307       1.82096510135820      -0.83896884052454
H        -4.04182263573415       0.35664794242868      -0.50467954482371
H        -3.40369177436125       1.35194345849777       0.86650098579561
C         3.24731364241441       1.09969348181885      -4.26505548959389
O         3.68949754324036      -0.03750572739005      -4.23117166636464
O         2.39526733051020       1.39177757179185      -5.08852024591932
C         3.74244630106628       2.13743933661716      -3.30337975613115
F         4.29726052061215       3.19072852091406      -4.00653369123389
F         4.70122609887329       1.60124234364912      -2.46117632804963
F         2.68497472147481       2.60422640651141      -2.54559222368380
