45
C11H24F2N2O4S2 optimized with ADF in AMS.
N         0.05319365335432      -0.41007777131364      -0.01505899493724
C         0.84645638176575      -1.62971845799923      -0.52764885618497
C        -0.96440565787148      -0.98418929075791       0.97546747443394
C         0.97200219963780       0.54603002733260       0.73290221878438
C         0.12177390056819      -2.85445606041504       0.00725000063706
C        -0.42534879899011      -2.35566129469292       1.34407887973794
C        -0.63097655465260       0.26294971572631      -1.18057126002767
C         2.08430132838756       1.15693932284206      -0.09575173981747
C        -1.48416948525624       1.45738825571788      -0.80513745461813
C         2.99969536523791       1.96552880895298       0.83213385775841
C         4.17738913832790       2.61470577746544       0.10137380579620
C         5.17486951299146       1.60145627492099      -0.45516212459021
H         0.92498990152952      -1.57238436229691      -1.62004420540673
H         1.85171925318427      -1.55172724091931      -0.09821700926672
H        -1.07705974456450      -0.28596419781954       1.81442999793665
H        -1.92158304551884      -1.07164405933976       0.43982973784823
H         0.32386857324213       1.32486833011132       1.16280807517672
H         1.40150754521678      -0.04407765969149       1.55754489529706
H        -0.70114367703546      -3.16249116133567      -0.66070540230083
H         0.82447433418699      -3.69267599063696       0.11668715516080
H         0.38637149086986      -2.27893204291196       2.08503966753597
H        -1.21583557105653      -2.99479131074546       1.76399076700454
H        -1.23282657902819      -0.52283822522163      -1.66286835171726
H         0.16633429836097       0.55399196033675      -1.87864470380131
H         1.68388217365727       1.82144803305747      -0.88256726279145
H         2.67703270252173       0.36474678572551      -0.57758362984475
H        -2.25841326954788       1.20450777346999      -0.06640691249558
H        -0.88121138570381       2.28985467410987      -0.41771304813206
H        -1.99430361518269       1.81313634248633      -1.71239872941747
H         3.38515840644174       1.28935223386323       1.61558294100451
H         2.40480331685278       2.74724619721597       1.34083019390372
H         3.79498828786440       3.26189322893976      -0.71113074178864
H         4.69320231287870       3.28500753287033       0.81138558149263
H         6.03830304002430       2.11022961470395      -0.91056604623672
H         5.54492350449154       0.94242683769852       0.34539678816973
H         4.73062664788079       0.94935445045919      -1.22091180723730
N         3.86354261050867      -1.63169171499742       0.66676185169436
S         4.52335812699806      -2.55259542309516      -0.48901221820474
S         3.45947939486172      -2.24610465922125       2.09418904826550
F         3.23258423775011      -3.50894858301724      -0.96139393971223
F         4.88214633428155      -2.42496566573358       2.88192308091288
O         4.72714415657435      -1.68673806724354      -1.63440526212274
O         5.52564742475869      -3.49973520471628      -0.05559964484695
O         2.86601162862299      -3.57194809717272       2.07579308378469
O         2.77651141407752      -1.17906500991185       2.82001468676325
