46
C12H14F18NP optimized with ForceField in AMS.
N         0.57743837478238      -0.02248362374381      -0.05135451137059
C        -0.32268482880375       1.05418298405392      -0.54948835437927
C        -0.30626323631654      -1.10436709430897       0.46265005720934
C        -1.73774866607887       0.71044018037823      -0.11942499457858
C        -1.72407643035159      -0.78980737888108       0.02182795286611
C         1.44776638692071       0.49212500249149       1.03234482128699
C         1.43019351550175      -0.53284006421330      -1.15112165861734
H        -0.31335796088443       1.12473542548751      -1.66243980147634
H        -0.04705092860242       2.06490368484448      -0.16935157661085
H        -0.30108472908867      -1.15253180911023       1.57694144846582
H        -0.01206622116078      -2.11724469916163       0.10255598979181
H        -2.49129285482228       1.04457451225107      -0.86545645809643
H        -1.95524400896059       1.17815022053905       0.86650688865985
H        -2.47624331855965      -1.13816510157282       0.76271576422756
H        -1.92432995279013      -1.26189387895614      -0.96557201164768
H         2.12225017397458       1.29302940813713       0.65446524534947
H         0.83961782917957       0.92165751763781       1.86034375597151
H         2.07868191753325      -0.32218753147322       1.45408055149041
H         0.80899930941318      -0.96563848542549      -1.96763820044842
H         2.04920320463710       0.28472901343492      -1.58409829842895
H         2.11617459386764      -1.32981430608241      -0.78577786887095
P         0.83751350533109      -6.73430494395196      -3.03156490784574
F         0.87271140627570      -5.59191244461559      -1.74003949544677
F        -0.80561954124935      -7.05861619439697      -3.43743921683290
F         2.46586014957641      -6.24183621589460      -2.77427074090608
C         0.27299792115909      -5.16476266274813      -4.00915295632733
C         0.38865899350017      -7.76174398183140      -1.45381361006645
C         1.72743809846397      -8.03694670679096      -4.12935569220828
C         1.34703254863525      -4.07405034281248      -4.21316492863812
C        -0.03745515734226      -9.23772955675775      -1.65947216879315
C         2.50313983166070      -7.53092126660911      -5.36010672244258
F        -0.78098827633635      -4.56399791026928      -3.33027729679968
F        -0.20981293168594      -5.52277761213893      -5.25799643721668
F        -0.66701955027460      -7.14720997147907      -0.78699428143678
F         1.48393160902101      -7.76754825654015      -0.60314684586878
F         0.77991684524942      -8.93602064411415      -4.58546775057330
F         2.64025004783373      -8.73027731913038      -3.35179985060222
F         0.77121322581065      -2.99383950307670      -4.85825580057342
F         2.38431839479740      -4.52964057227287      -4.99665438310866
F         1.85388842456467      -3.62814827435082      -3.00631256975145
F        -0.52393423059954      -9.72743671364128      -0.45979582039300
F        -1.04061090974242      -9.36524631943769      -2.60124508996061
F         1.02991730043957     -10.03384796566904      -2.01993828011341
F         1.69803242653599      -6.79907124402375      -6.20557588981601
F         2.96704388441363      -8.62477546260652      -6.06975563774281
F         3.60339371687158      -6.78197504826698      -4.98575066992924
