55
C15H20F18NP optimized with ADF in AMS.
C         2.44092335336647       0.72589065656323      -0.37213594052565
C         1.34437941696114       1.03570237750674      -1.38642602853297
H         1.01232099430575      -1.67886956173244      -1.40693421955120
H         0.09499476758979      -1.64695257261750       0.12860052305735
H         2.86905033647582      -1.41221761321106      -0.00267293162251
H         1.95356937545255      -0.62059407793721       1.29532632393123
H         2.48411118450972       1.48588665593454       0.42222785044013
H         3.41459847660817       0.72198802768902      -0.88157651568717
H         1.03775746150527       2.08921754454690      -1.44429106384552
H         1.62129043450515       0.67996161996684      -2.38536718880797
H        -1.36162380346078       0.18876242755855       0.52156279548657
C        -0.56724304002925       0.85378072279113       0.16446129577504
H         0.14691006762758       1.04445249924177       0.97406035273757
H        -0.99854966893340       1.80042446134016      -0.18598697202990
C        -0.76620780202984       0.02316650025837      -2.17178631587850
H        -0.93667530265656       1.04442869798810      -2.54867140337420
H        -0.16775621592886      -0.52686706339744      -2.90901915325998
H        -2.73038839260581      -0.11638895698573      -1.23425823064435
H        -3.37325216589736      -3.88989821348298      -1.52545715537599
C        -2.05010891031497      -2.16251127501956      -1.58608330685468
H        -1.28664263219170      -2.66464363752196      -2.20217736510890
H        -1.75143753020507      -2.30024847190874      -0.53310262634782
C        -3.40671225183786      -2.82674206167339      -1.80463630975887
H        -3.69855518707713      -2.76765523700702      -2.86468587324653
N         0.14601611329462       0.19742308489471      -0.96753654414949
C         0.80078889631863      -1.09668841900224      -0.50288604924363
C         2.08626263781536      -0.66947461101901       0.20431684752544
H        -4.19385575622622      -2.33996193927124      -1.20615917286857
C        -2.09629511148329      -0.67517697312401      -1.94545212599655
H        -2.60546919307784      -0.57960316893322      -2.92245121484790
P         2.01936865685160      -3.26601777960197      -4.32147380263843
F         1.12410028495429      -4.65531252182766      -4.17119877670652
F         3.15410423405590      -3.93804908279400      -5.31369557929606
F         0.88057526235705      -2.47817381694513      -3.31773004534789
C         0.88254041665741      -2.95464430355265      -5.90323802180495
C         3.05830367901348      -3.99460736993564      -2.71871370062934
C         3.04822083910974      -1.50428822097720      -4.27209900274265
C        -0.63949042069481      -2.65670208916459      -5.71253737022790
C         4.59119387696319      -3.80256580599883      -2.43225334664641
C         2.71746990124736      -0.16403745681153      -5.00616884611478
F         0.91492644185785      -4.08687252198649      -6.68218599191825
F         1.35599874341049      -1.93062779186161      -6.69731671725853
F         2.96302999088660      -5.36290021221050      -2.80464149171611
F         2.42942295779994      -3.62822976050808      -1.52982113297534
F         4.36585390145532      -1.72820772062095      -4.57769970777090
F         3.01007714624175      -1.11847526688489      -2.92359563220875
F        -1.24295082848784      -2.61442191242088      -6.93153470348318
F        -0.86126513959273      -1.44449819307251      -5.12308805287757
F        -1.26672468394034      -3.59714311018408      -4.97356287136383
F         4.95480534809929      -4.67530211678401      -1.44547774154031
F         5.34022410717791      -4.07458763546260      -3.51860490423161
F         4.90987888081184      -2.56350600224359      -1.97807590189131
F         3.10330964714040      -0.16256930422102      -6.29154680838925
F         3.39081547223584       0.86170934737586      -4.38877508575913
F         1.39427200380840       0.14623449005924      -4.92400878455545
