40
C10H22F6NP optimized with ForceField in AMS.
N        -1.45386938567369       0.40674577042456      -0.10359259975853
C        -1.77447594056009      -0.85826708389382      -0.82803500203094
C        -2.53686016455192       0.57798068480570       0.90554683695529
C        -0.13938572315009       0.31679740804555       0.60296444184164
C        -3.02852118921169      -1.46063195518935      -0.21196335464215
C        -3.69272746955687      -0.31396210868053       0.50184670408993
C        -1.47686431586055       1.56174439049046      -1.03855224881967
C         1.09759320418179       0.29177080316657      -0.32566335721836
C         2.35814251441011      -0.08344375540976       0.46493712372587
C         3.60235122543921      -0.06628613734642      -0.42926839246855
C         4.85114464830732      -0.44975266267146       0.36006744642459
H        -0.95766275446223      -1.61166682880849      -0.77314051790410
H        -1.96659461336921      -0.68472179321301      -1.91261941857278
H        -2.88076358758127       1.63379532418318       1.00514797842739
H        -2.21294803618419       0.25842117736213       1.92428574409193
H        -0.12604303555830      -0.60200665877096       1.23323781639621
H        -0.02246044621261       1.18155398352092       1.29682687909776
H        -2.74497364643992      -2.24379031254789       0.52641359920444
H        -3.69838116119538      -1.90297263292093      -0.98080993608420
H        -4.36488102785195       0.22961196745557      -0.19771433299000
H        -4.27258967819052      -0.66374029763839       1.38389155245185
H        -0.79744017328496       1.39764393561009      -1.90299889461161
H        -2.49799714822313       1.71664040974871      -1.45476292133098
H        -1.16820906031695       2.49792510720741      -0.52207690413177
H         0.95739939922404      -0.43705514381464      -1.15103143745741
H         1.24675190438036       1.29935294808250      -0.76959900347091
H         2.23211492897891      -1.10099837329446       0.89655298997786
H         2.49600978514394       0.63912992854348       1.29956850197684
H         3.74465197744231       0.95070546522768      -0.85544303687926
H         3.47258566219091      -0.78490414629416      -1.26758651577585
H         5.01878455431649       0.26865137094624       1.19068905238704
H         5.73576084559886      -0.43006196446571      -0.31059911363364
H         4.74436509895703      -1.47384486978993       0.77756567775151
P         2.21306582503131      -0.83051303906232       4.74596626981492
F         2.21577074980508       0.87189045614486       4.98039943395389
F         3.29030372949464      -1.05897160067984       6.06522967420809
F         1.00534552416730      -1.15170482708561       5.92564164976400
F         2.26691431312442      -2.47448073959489       4.24809984059186
F         0.95041720280600      -0.56089536228999       3.61439391982722
F         3.52074574423546      -0.61008622400306       3.65314765302059
