45
C11H24F2N2O4S2 optimized with ForceField in AMS.
N        -0.21785906404550       0.30097608319986      -0.17859524549125
C        -0.91117696316149       1.28711870147333       0.71334838838085
C        -1.11579511990750      -0.00683491488467      -1.33899795799392
C         0.12712317440419      -0.93495064859445       0.60827079186124
C         1.01120958605763       0.95467916602786      -0.74745470872180
C        -2.31991939981234       0.85046594218863       1.16117497644280
C        -2.50791647638593      -0.52026481474308      -0.93418270788865
C        -3.20362020608946       0.49020644805754      -0.02870373899895
C         0.92034610562011      -2.01878857122785      -0.16259404243968
C         2.13072334060077       1.28425402172910       0.27162333151999
C         1.24015895504287      -3.20565148994877       0.74250560879467
C         3.28564506825898       2.01519765344700      -0.40773464151390
H        -0.32453580855087       1.47067149889886       1.63873231032418
H        -1.01655987788439       2.27069086572073       0.19942576104481
H        -1.27693903302676       0.91229817441984      -1.95024768124874
H        -0.65154728874404      -0.73692777579063      -2.03366082907020
H         0.70181154764185      -0.65988350397801       1.51968708330995
H        -0.78586724967193      -1.42235042191355       1.00199978330200
H         1.44990393344849       0.32391775620098      -1.55247191938510
H         0.73122027880243       1.90672336423460      -1.25595721722536
H        -2.26580415525540      -0.00023280868071       1.87221431026888
H        -2.79136811216704       1.69517401103360       1.70364592654970
H        -3.12129726877501      -0.65952105555992      -1.85042232732548
H        -2.44532872969568      -1.51097569322212      -0.43896007885483
H        -4.16235811018068       0.06360097176452       0.33736355830626
H        -3.43587843561813       1.41048891866176      -0.60888668896538
H         0.33094134487308      -2.40425867399603      -1.01846142411169
H         1.88271008101481      -1.61966726175006      -0.54067311560954
H         1.75275334782709       1.93745444295407       1.08309339813426
H         2.54111674410479       0.35733965867934       0.72163261208899
H         1.80627422510103      -3.96924432233999       0.16807180382439
H         0.30311928444426      -3.66915972261760       1.11853479357203
H         1.86090067468385      -2.87855105259922       1.60363032504798
H         4.08362874417913       2.22267905274949       0.33618255411222
H         2.93581226611764       2.98157484915243      -0.82944670133752
H         3.71295447261625       1.39146679310367      -1.22149024909831
N        -4.14268550526439       2.27123746944234       3.87324745403392
S        -3.87300622425484       1.64086212050276       5.35842660021579
S        -4.98462306085602       3.65933155879229       3.67178449650487
F        -5.27366334323237       0.90698311192471       5.90797269263015
F        -4.07090476368431       4.94908125545844       4.22402946818170
O        -2.77552643822287       0.61875002746305       5.27774227589353
O        -3.48372139507895       2.73025585662349       6.31741727427390
O        -6.26445306467908       3.59802532816025       4.45648935539976
O        -5.29171157199430       3.85353506448210       2.21449576586148
