27
C7H13BF4N2 optimized with DFTB in AMS.
N         0.76870581083114      -0.61740649120795      -0.53702547334450
N        -0.84556476969376       0.71572047529086      -1.03512281597030
C         2.11473362172438      -1.18613958534730      -0.51035898046885
C         2.75200471806523      -1.02803982801799       0.87249522492465
C         0.38789025553186       0.34871793091414      -1.36615589287236
C        -0.24437988404225      -0.86889055069537       0.35214332580271
C        -1.25960441251340      -0.02021779687228       0.04151244822791
C         2.93759562134932       0.43772608241735       1.25735397392328
C        -1.49502287566319       1.89994573963904      -1.57253077039642
H         2.69790526760813      -0.64468571022165      -1.26042175439020
H         2.05003503070956      -2.24348281546175      -0.78674724903157
H         2.13698293712566      -1.53877302599567       1.62058003462956
H         3.72395227443732      -1.52962026787162       0.83928756260046
H         0.97192734827389       0.76449184501627      -2.16957511872231
H        -0.16798753847909      -1.61872954206166       1.11953558817696
H        -2.22739441096326       0.11522187403680       0.49179037624667
H         1.97939332908819       0.95601283308756       1.27324993983340
H         3.58334613709854       0.93857785274443       0.53788522085851
H         3.39080032487826       0.50220696786885       2.24633118254821
H        -1.11573979940706       2.76280672595262      -1.02164626521444
H        -1.22278162159520       2.00539692447934      -2.62078723397223
H        -2.57350421110315       1.81028824002578      -1.45736976693336
B         1.89946381484868       2.78778988135268      -1.33541193741322
F         2.59917612370308       3.94505948215777      -1.18039789714013
F         2.75806461451467       1.66800231468815      -1.50894419627087
F         1.02994721210237       2.83195060308326      -2.45423584340237
F         1.08538302757008       2.51076163219837      -0.20236440552914
