59
C17H36BF4N optimized with ADF in AMS.
N        -0.48355062456679       1.59359842793453      -0.09944788415241
C        -1.34170470979684       2.13820141881666      -1.22086773144289
C        -0.15677074968673       2.72680661053011       0.85099888084307
C        -1.18788641165707       0.46141372736724       0.65987671770143
C         0.81467064180668       1.05738059482619      -0.72504022757639
C        -2.60621847133815       2.81747956910470      -0.72203084233881
C        -1.37834810761107       3.49014447761808       1.34859266385606
C        -2.25743549435659       3.98397362055600       0.20152075598957
C        -1.92602439091816      -0.54637001346402      -0.20491985679109
C         1.96717859361398       0.82963428095209       0.23853425400471
C        -2.36516993032635      -1.73904087009051       0.65698912146880
C         3.09378487700153       0.06243690542727      -0.46934874862648
C        -2.86693821159875      -2.90737448340440      -0.19224112565136
C         4.16166786335986      -0.41704132148020       0.51438956701298
C        -3.07273129051050      -4.18028240277331       0.62782777078508
C         5.17237520619437      -1.36221946574611      -0.13381999768511
C        -3.55788265607996      -5.35308821987614      -0.22152996244385
C         6.24158848241774      -1.83975477344436       0.84646895497610
H        -0.70928214361697       2.86868162926297      -1.75073888922427
H        -1.54530665919501       1.30191553219718      -1.90231661391714
H         0.40922456402636       2.28817189532723       1.68312896597873
H         0.51353164502930       3.40025897777251       0.29213767684677
H        -0.39282955496553      -0.05780872653184       1.21570416838472
H        -1.87236328090461       0.93745246202828       1.37383635909737
H         0.54512213096178       0.10156121248058      -1.19841875634668
H         1.09112780352607       1.78638641583859      -1.50388480901845
H        -3.16974161765899       3.16505047317574      -1.60360210862412
H        -3.25385603303101       2.09330978520307      -0.20068122189663
H        -1.97141993871050       2.86501848075260       2.03663057558555
H        -1.00488500042313       4.33492944988755       1.95145803969991
H        -3.17086074296505       4.45851006501825       0.59423091772242
H        -1.71644371330346       4.75762153402367      -0.37457913159115
H        -2.80926288343691      -0.09403702640095      -0.68907319483633
H        -1.25337656186368      -0.93918000393185      -0.98375461450330
H         1.63523530435079       0.20545653062636       1.08308737399042
H         2.35983905592214       1.78453868957315       0.62844807100352
H        -3.14813609810681      -1.42178473612958       1.37243028476878
H        -1.49780690373699      -2.08488544017488       1.24195091938599
H         3.55261559187883       0.69600844107710      -1.25226564124818
H         2.65840364182354      -0.82110934046521      -0.96378454778300
H        -3.80638896717531      -2.63143137118493      -0.71017277570462
H        -2.10922932590912      -3.11768781351794      -0.96798519051968
H         4.68579127401949       0.44864507347827       0.96516495533310
H         3.65553853182050      -0.96230830628676       1.33102421706601
H        -2.10617958194040      -4.43920906259962       1.09179986191332
H        -3.79026470934914      -3.98735451792855       1.44704464391578
H         4.61652677209567      -2.23188915236890      -0.52298746171574
H         5.65121656261610      -0.86402038977345      -0.99767568000573
H        -3.66133617562569      -6.26840811560777       0.38159910751558
H        -2.84076325642402      -5.56591130405327      -1.03073510460381
H        -4.53603548356610      -5.13900841276891      -0.68340983744685
H         6.82988500507584      -0.99547498518137       1.24291256993231
H         5.77797264232194      -2.36002901668330       1.70024876170486
H         6.94025495809956      -2.54245119745346       0.36668121100646
B         1.06472323273214      -2.83941068202942       0.26570227120121
F         0.87316170161763      -1.91304805330012       1.36156983334530
F         2.42089726278343      -3.20370370679016       0.19538845478581
F         0.68660587286479      -2.15049297037624      -0.94947468500051
F         0.23012120189534      -3.95646640273845       0.44695448207287
