39
C11H14F6N2O4S2 optimized with DFTB in AMS.
N         2.97629792070274      -0.69635072966055      -0.45140388138402
C         0.90340433137305       0.39889019328345       0.29485767024549
C         2.09957068304932      -0.46120382234090       0.70307010732895
C         0.00561665761222       0.66439451845846       1.50778672468240
C        -1.19574556347884       1.52580963599807       1.12562635279700
C         3.73364673680361       0.31340968748596      -0.90554772520309
C         3.03686440582715      -1.91470042131489      -1.01047832928461
C         4.59839903870801       0.11997763371802      -1.96357427902424
C         3.88820585156011      -2.15825792171814      -2.06701851937939
C         4.68830723200696      -1.13171268547425      -2.55306920128212
H         0.33602681899479      -0.11643771012777      -0.48711182896948
H         1.25929660488111       1.34825434330358      -0.11669262312842
H         1.77015504938062      -1.43001316338732       1.08286736819923
H         2.70176619676823       0.03380457247418       1.47060575258459
H        -0.34199598943034      -0.28959610275566       1.91717111607071
H         0.58838142378377       1.17075740234101       2.28349399648116
H        -1.81811582790538       1.70098527797443       2.00274503935304
H        -0.86674493652713       2.48915906113501       0.73426321961280
H        -1.79822653145035       1.02791181937993       0.36476058186763
H         3.66552901813118       1.25861203987245      -0.38243186540950
H         2.41620827690214      -2.68900517416935      -0.57710156274840
H         5.22725011718296       0.94068466388611      -2.28254086319201
H         3.93978208519168      -3.15498373744245      -2.48567354174184
H         5.38124627012409      -1.31205392176340      -3.36543948169977
N         6.67229118508127      -1.03270003349537       0.84902466217015
S         6.12737575731562       0.43913334624247       1.14906431715958
S         6.57643705462767      -2.10240010941418       2.04572356942863
C         7.21057290868447       1.27799354663706       2.44491682554044
C         4.93453868211314      -2.97399458573079       1.78600728482190
O         6.34847320199851       1.20481538689202      -0.06220756601773
O         4.77617884170719       0.50824956462441       1.69681836930266
O         6.49418965194549      -1.54990157682171       3.37102547324138
O         7.52284557219974      -3.14500174256778       1.77074161368259
F         7.43132079900146       2.52353551062314       2.05260943332358
F         8.36548531556873       0.65131279071865       2.55146100900415
F         6.60338183499262       1.30104590580451       3.61247738314099
F         3.88842336778045      -2.19788725458516       2.07489912571691
F         4.85668032964814      -4.06559059918923       2.52294986775812
F         4.80819320194385      -3.32901240179404       0.49891860885053
