26
C6H11F6N2P optimized with ADF in AMS.
N        -0.28928915321449       0.76299406066989      -0.11056293065530
N         1.74840502447201       0.14277113335293       0.30015219892832
C        -1.62502398897863       0.81231958319653      -0.72455082560711
C         0.65519862726622      -0.13376635214757      -0.41961507623403
C         0.22003959543779       1.64582847865455       0.81773190221047
C         1.50412190470578       1.25958196354206       1.07115650165098
C        -2.55047844396264      -0.25324080960565      -0.15979138881161
C         3.05599045280784      -0.47611973198697       0.09574841190869
H        -2.01159243607774       1.82411842310785      -0.53874460159172
H        -1.46731804115085       0.70664892499350      -1.80778559532062
H         0.59722269014706      -0.87862145864089      -1.20486610852258
H        -0.36584607410035       2.46931129659492       1.20552485189881
H         2.26300777419724       1.68993652216465       1.71160014251140
H        -2.16477010327689      -1.26220849587498      -0.36712655647668
H        -3.53934421114318      -0.16842607498986      -0.63360145039796
H        -2.67384962865568      -0.14044057068401       0.92791724107585
H         2.91343042862300      -1.48824673909798      -0.29456653126420
H         3.60229664356863       0.11666104513116      -0.64978998987333
H         3.58380889962625      -0.51216623226469       1.05573656172907
P         1.89484937730023       0.61007257000000      -3.60328222283889
F         2.13700848909054       1.46443527938788      -2.17895053089262
F         2.15208680296952      -0.82111803490415      -2.73783911359898
F         0.26259515724387       0.48818074441798      -3.19561723087395
F         1.61730163345710      -0.27065592698037      -4.95143116856829
F         1.59934296903176       2.01091457186949      -4.39015149479867
F         3.49971280751561       0.69237692329370      -3.91859736158705
