79
C23H36F18NP optimized with ADF in AMS.
N         0.73539857686331       0.27190296473609       0.97361028002650
C        -0.67946176481150       0.62796670006846       0.56461708479303
C         1.30467598503110       1.40421971775857       1.81741396419947
C         0.77376901502874      -1.01788562378512       1.78382085515612
C         1.55513354798224       0.13630105904397      -0.29910905259035
C        -1.58218094872572       0.95205953015591       1.74382221207043
C         0.43218702957288       1.74687706888399       3.01168524013403
C        -0.99700855916213       2.08100211047934       2.59262027091833
C         0.40502162683421      -2.28162072119735       1.02665478407078
C         3.01458746030865      -0.22223917637092      -0.09756655745159
C         0.25550719266211      -3.44210182037558       2.01745938230157
C         3.71503952604665      -0.40698896448762      -1.44511082426064
C         0.05733059643087      -4.78804752285099       1.32608775616626
C         5.18589101451030      -0.77459928457602      -1.25385277530241
C        -0.05294759789735      -5.94247382657545       2.32152495071017
C         5.93363624954820      -0.99572990270001      -2.56596157661141
C        -0.23874728882433      -7.29617691028812       1.64072154819533
C         7.39713522533756      -1.36851640329784      -2.33667138993648
H        -0.58510415717680       1.50645019659551      -0.09452638807243
H        -1.06179882515906      -0.21042435563159      -0.03279601915294
H         2.30281895853042       1.09121637621049       2.14055949755573
H         1.39211094288029       2.26617576739818       1.13491267547428
H         1.78826199079396      -1.08780888958658       2.19089100515145
H         0.09733843701438      -0.86916781016140       2.63272714713774
H         1.04349935268313      -0.62412173848836      -0.90825092253587
H         1.45711652347873       1.10401371892814      -0.81755650988820
H        -2.56512638465918       1.23628929126860       1.33274385305588
H        -1.75200203544859       0.05221675749035       2.35812659371594
H         0.45407455501076       0.92590554696283       3.74548269146589
H         0.90908332502020       2.60457392335648       3.51360112576216
H        -1.62729287008842       2.25965133836873       3.47767988597636
H        -0.99843048623032       3.01490623726897       2.00114157784666
H        -0.53882440433101      -2.16576385499114       0.46546520469822
H         1.19408461752449      -2.53595699251049       0.29932807175416
H         3.11586320877219      -1.14786395534369       0.48667924866795
H         3.53729403194117       0.55974130036746       0.47367484688127
H        -0.59758955762140      -3.23973217641372       2.69130914331427
H         1.15433167620415      -3.49264371021136       2.65150313970518
H         3.63640610237349       0.51986325427291      -2.04428297006668
H         3.20818487681924      -1.20192763276805      -2.02424183854274
H        -0.84838475000138      -4.75871184098173       0.69074148252968
H         0.91188505886528      -4.97515453595461       0.64912778192380
H         5.68657835048117       0.02072712647874      -0.67169355550507
H         5.25126771995066      -1.68626126146434      -0.63495821291530
H         0.85707823049056      -5.96025006702637       2.94686535307080
H        -0.89775808795109      -5.74964796565856       3.00750431278909
H         5.43074302991954      -1.79466938939568      -3.14150600606271
H         5.87189165853998      -0.08084819700048      -3.18353196749443
H        -0.31093585525886      -8.11099433366380       2.37744207550548
H         0.60981233653583      -7.52050882702480       0.97481107176184
H        -1.15684373692462      -7.30999081096323       1.03160889651595
H         7.92334537181517      -0.56915519648970      -1.79112266938035
H         7.47544974787787      -2.28664414001737      -1.73327341307215
H         7.92777216397459      -1.53831492565800      -3.28596890074050
P         4.69308639222198      -1.06942465300697       4.11170550586005
F         6.03301469298582      -0.93879934715898       3.13565140223999
F         3.75727610559432      -0.33875742113349       2.88850290841307
F         5.53125464553582      -1.79305683409332       5.34172492126696
C         4.41761771534336      -2.85970098242597       3.28371445188989
C         5.24004289241647       0.70347455046591       4.81668890040599
C         2.97131655409891      -1.15921843599261       5.14525476057068
C         5.64423497046936      -3.56585991922905       2.61656025295583
C         5.02541720456846       1.96929905910618       3.93134656835390
C         2.91883172607876      -1.69341186722620       6.60823754696180
F         3.47027844666506      -2.83247571535675       2.25740697905402
F         3.96005175223368      -3.76214729933315       4.21330898620402
F         6.59637617310118       0.65788586011565       5.04612898887862
F         4.66147100796898       1.01599662222646       6.02731187042563
F         2.05555372025066      -1.94740562372254       4.45536672450633
F         2.39351418410471       0.09876085643646       5.18175667556674
F         5.28616928283794      -4.84699754991011       2.29240134066597
F         6.70716945313911      -3.63421825555461       3.43999154728535
F         6.01117500135160      -2.96127710556763       1.45993668836022
F         5.62060005724345       3.04330435762822       4.51663738402652
F         5.54879379361669       1.83431016711630       2.69039431874074
F         3.70123067587418       2.27540976975443       3.79677452185382
F         1.62478131474099      -1.62598637927837       7.05720298539181
F         3.67840848911678      -0.96305314366178       7.44825267311765
F         3.30572123555947      -2.98368032938168       6.68176125618486
