46
C12H26F6NP optimized with ADF in AMS.
N        -1.90255113995665      -0.21264912097237      -0.18480432432871
C        -2.19074610433505       1.13109951454688       0.47827847235253
C        -2.86145285289052      -1.25142847306603       0.36700759369796
C        -0.48998926731709      -0.66189197239638       0.17478843583345
C        -3.64504248178220       1.54858936063541       0.35602072789959
C        -4.32434844096806      -0.85783145873059       0.22948103128404
C        -4.59711255061784       0.48770025663138       0.90094205631935
C        -2.03483523570284      -0.12392550778414      -1.67695517104231
C         0.62965922567538       0.22511109916815      -0.33872846731586
C         1.98580342085598      -0.25159729009157       0.19116233242044
C         3.12572308007440       0.63218158742834      -0.31845963479577
C         4.49993294814004       0.19482905989695       0.18519841561557
C         5.62759706063054       1.08900627513530      -0.32659652833450
H        -1.53214076022634       1.87752751769570       0.01546761311810
H        -1.91098411554946       0.98974097195590       1.53593512918895
H        -2.59908407816827      -1.36657130761281       1.43136437539339
H        -2.63622560871673      -2.19648215901291      -0.15064407797063
H        -0.47309570124202      -0.71881140819117       1.27547382743425
H        -0.39487997660562      -1.68758978176424      -0.21957094455944
H        -3.74270435369337       2.49697150534115       0.91034993160873
H        -3.87296737360647       1.80147076928421      -0.69170617174257
H        -4.61879090113722      -0.82569157673479      -0.83283838435681
H        -4.92302565626877      -1.66239523997792       0.68979218021033
H        -4.45531855333494       0.38356417565746       1.99329054521335
H        -5.64514082689309       0.78822655250566       0.74205947483947
H        -1.36361405334344       0.65465679788879      -2.05875830923001
H        -1.78691917289063      -1.10964290910858      -2.09346487243344
H        -3.06201034353809       0.14834270623632      -1.93376387062248
H         0.65396313163419       0.22625004726638      -1.43830327029537
H         0.47316623788102       1.27280485396819      -0.04294109417660
H         1.98236681990125      -0.24250177146313       1.29781845651678
H         2.16766307470829      -1.29958513879291      -0.11462483945530
H         2.93450202998911       1.67838254226728      -0.01770958968068
H         3.11899809805844       0.63159716069956      -1.42390805865809
H         4.68676122521225      -0.85054187776610      -0.12350738991009
H         4.50050026095065       0.19593963403698       1.29119336306755
H         5.66914632473987       1.08121432127495      -1.42755635527022
H         5.47889809587553       2.13297869701906      -0.00840611550694
H         6.60695662170933       0.75589646194772       0.05101047482762
P        -0.74264683525949       3.69017868466977      -2.37847173598133
F        -0.32963811012484       3.38903240540549      -0.76957709839408
F        -1.40206885279786       5.12123501167637      -1.93428020064659
F         0.72128572931602       4.37689436218772      -2.62107146811922
F        -1.17109284601069       3.91631499846506      -3.94174324822805
F        -0.10152537494887       2.18474714763784      -2.77152311926459
F        -2.21408214682583       2.92665054123565      -2.08779929122179
