45
C11H24F2N2O4S2 optimized with ForceField in AMS.
N        -0.23546203295291       0.30678348718783      -0.13940345494723
C        -0.92800163599549       1.27505817318214       0.77341547338305
C        -1.13151980414207       0.02060370208114      -1.30745701367712
C         0.10856768323315      -0.94432585562369       0.62380136979795
C         0.99310542831371       0.97005126869008      -0.69757400853942
C        -2.33836163654193       0.82902270514786       1.21042983520411
C        -2.52982975606155      -0.48608457567724      -0.91776591661539
C        -3.21935984699478       0.51263198595164       0.00579718027852
C         0.91144016296897      -2.01110177689971      -0.16019291020311
C         2.11218335806730       1.28972075950972       0.32337075540201
C         1.23490858048308      -3.20776791864420       0.73161085851243
C         3.28142458403749       1.99588924236071      -0.36000168412658
H        -0.33992791324617       1.43818330687317       1.70207509548350
H        -1.03140536949706       2.26970938886633       0.28118159510530
H        -1.28265722448868       0.94794345315178      -1.90878137943746
H        -0.66990219963162      -0.70502260715605      -2.00882414835154
H         0.67493190834359      -0.68621827825425       1.54541987680405
H        -0.80600388928675      -1.44367967540694       0.99831539178296
H         1.43164355451505       0.34888937262878      -1.50770798920710
H         0.71308851276234       1.92802426264760      -1.19488038547921
H        -2.28612646654054      -0.04933135034874       1.88688942966018
H        -2.81080566804309       1.65033813384423       1.79168225827223
H        -3.14063113561480      -0.59997998911518      -1.83948039876694
H        -2.47828237074839      -1.48711520991073      -0.44230757197731
H        -4.18724976771678       0.09118819863215       0.35280243364086
H        -3.43289229760358       1.45032513210618      -0.55356568197257
H         0.32680831951942      -2.38781546131324      -1.02333383739607
H         1.87299117253536      -1.60193364351250      -0.52944778850553
H         1.73793107463551       1.95661130499851       1.12575659513087
H         2.50718895967130       0.36165695416849       0.78416610212715
H         1.80300165520038      -3.96392816530926       0.14955036111661
H         0.29936726722736      -3.67739357226698       1.10373610993533
H         1.85412440179360      -2.88851924247612       1.59692260555304
H         4.06947035422578       2.22232332499116       0.38890217625361
H         2.94375857299779       2.95025077880720      -0.81755794174982
H         3.71829040273933       1.34635957295833      -1.14810979072787
N         4.08455230017314      -0.15654330583668      -5.91250908731547
S         4.12731703267878       0.50133926842618      -4.41547364143320
S         5.45559666492025      -0.42688857822792      -6.76227822925800
F         4.52730317534528       2.12258377619133      -4.53359181648601
F         6.31631870032552      -1.66987322228945      -6.04343257512582
O         2.77726417497772       0.36555698689609      -3.77238471185492
O         5.16137885897252      -0.19564553407655      -3.57616722828437
O         6.30546972819101       0.81279048594823      -6.77051364345454
O         5.10539925705142      -0.80983744860141      -8.17219388165116
