45
C11H20F6N2O4S2 optimized with ForceField in AMS.
N        -0.04764466882032       0.24533061868507       0.16262679117968
C        -0.96749051432029       1.23775524454964      -0.48020633631611
C        -0.49222682907424      -1.14817015832875      -0.14972980685956
C         1.31593979717343       0.48650397014418      -0.41792226433015
C        -2.45954601525921       1.01404428223269      -0.16909225632243
C        -1.96969905351664      -1.41465241175172       0.18748446312419
C        -2.87832418364793      -0.41080374282104      -0.51177620521515
C        -0.00654059604715       0.47254512829209       1.63320150405962
C         2.44974174911250      -0.41309471214298       0.13424122617353
C         3.77922528503294      -0.09218726106592      -0.54450527194516
H        -0.86078368364698       1.20075680380953      -1.58963326965465
H        -0.70030732118857       2.27461684516180      -0.17255431775585
H         0.10588716088785      -1.89308275577021       0.41772304766834
H        -0.34367749311043      -1.36647395216025      -1.23243383519989
H         1.61555554914983       1.54763959532209      -0.25037470804204
H         1.28695168828615       0.34503056856529      -1.52349082162392
H        -3.06466122157281       1.71930462027611      -0.77897942491423
H        -2.68764695724841       1.23699579835718       0.89357958135379
H        -2.13315125156637      -1.37830281035065       1.28542139166882
H        -2.23966486127102      -2.43842652057503      -0.15096570759970
H        -3.92948175975003      -0.57590285032520      -0.19091384840397
H        -2.82414041783452      -0.56163786277657      -1.61257508427076
H         0.56540408108402      -0.32403167680558       2.15406279866975
H         0.45554328114815       1.45591590253430       1.87365381223516
H        -1.01411860880383       0.46268267734991       2.09124555541736
H         2.58574601519034      -0.25396072668772       1.22335681951335
H         2.23137217805333      -1.48405770228331      -0.05063333665085
H         3.70154745844577      -0.24409143978850      -1.64229859580085
H         4.07395827796289       0.95746423690012      -0.33698019283267
H         4.57089027432545      -0.76325692113652      -0.14934067390104
N         7.12405457702168       3.11561922239477      -1.04062907299008
S         6.28063933097679       4.49373328776362      -0.76335489289471
S         8.26546718674773       2.99112941938326      -2.21114498536949
C         4.77239120875177       4.46224409028302      -1.71107132683663
C         9.87529272835891       3.23122151988415      -1.48748728534354
O         5.93182956471777       4.57361717979311       0.69623546842809
O         7.09239668587322       5.69846811902717      -1.15200996454457
O         8.03997223569891       4.01657776986735      -3.28768461592485
O         8.20838733323482       1.61415189989569      -2.81030512927395
F         4.05503071173205       5.62015387171985      -1.47865530677596
F         4.01230547462977       3.37232774996545      -1.33387238243523
F         5.06752801796628       4.36889773967531      -3.05771433520119
F        10.84338217685548       3.14041304439899      -2.46960269066049
F        10.10087765308402       2.25863894905796      -0.53187692136446
F         9.93983653757692       4.47806180408024      -0.89504351533753
