28
C10H15NO2 optimized with ForceField in AMS.
N        -0.47555475382171       0.01532536678882      -0.29268485607563
C         0.94520274762031       0.00868745713419      -0.66291030835447
C         1.82186542939925       0.03191584546183       0.59185590302721
C         3.30296333526640       0.03019027919327       0.22877534301720
C        -1.15158918884673       1.20220111755864      -0.20548075523316
C        -1.11736830853384      -1.16739848596786      -0.04272927046591
C        -2.50907360747583       1.22271048918256       0.12581984640221
C        -2.47561178493971      -1.18208170378284       0.28520451382951
C        -3.17305340045282       0.02156569560970       0.36761432271183
H         1.17847201554425      -0.89620979121203      -1.26775363813552
H         1.18255573136627       0.88954980913625      -1.30116392415139
H         1.60109129561557      -0.86049439934047       1.21673233498289
H         1.59513647765235       0.94398232267474       1.18548582648293
H         3.55709887895296      -0.88492660430878      -0.34766448575065
H         3.91262064667428       0.04698339742515       1.15657556885444
H         3.55215537220210       0.92762580772384      -0.37688046199393
H        -0.64482300555901       2.14118286009340      -0.39433983555325
H        -0.58325500718113      -2.10816105181726      -0.10543124217812
H        -3.04219857995833       2.16237276121946       0.18934876307945
H        -2.98361864881338      -2.11990426813437       0.46829617912737
H        -4.22657837011138       0.02343800804159       0.61722578100961
C        -0.44305003940067      -0.06427279949413      -4.17050170938431
C        -1.59788787430938      -0.74611216622757      -3.50811310388911
O        -1.64194421121169      -1.96475576684029      -3.46306700819163
O        -2.50032001316451      -0.08864639606886      -3.01551585942705
H         0.50760528851496      -0.39499715304072      -3.70313354650803
H        -0.42827730022758      -0.32690089894555      -5.24886646193031
H        -0.52731330630101       1.03892461353729      -4.06863817160219
