41
C11H24BF4N optimized with ForceField in AMS.
N        -0.22570235889207       0.30726992654354      -0.16203194655014
C        -0.92069834707404       1.28326079306652       0.74007070926067
C        -1.12234302623340       0.01167218871366      -1.32656369440713
C         0.11928547906414      -0.93578337921699       0.61300881751433
C         1.00338567622942       0.96516603637931      -0.72642216328831
C        -2.32959424126383       0.83729461901253       1.18504979373944
C        -2.51500101305100      -0.50567143103456      -0.93122261294529
C        -3.21395374348016       0.48879137833797      -0.00940670746907
C         0.91048567726517      -2.01521590866903      -0.16576878705155
C         2.12853432940510       1.28441032283573       0.28941126116001
C         1.21711592627217      -3.21334945973904       0.73003143915915
C         3.28561850263428       2.01463361159156      -0.39102162881393
H        -0.33154265219621       1.45844394556215       1.66649435293544
H        -1.02796955542248       2.27111018435089       0.23544365313901
H        -1.28158171340675       0.93703636236174      -1.92847309026518
H        -0.65635775574514      -0.71200775356579      -2.02812073255769
H         0.69743245082550      -0.66790262384592       1.52428841331676
H        -0.79480135252286      -1.42392258929985       1.00276635903940
H         1.43862690200006       0.33548914595339      -1.53250402917605
H         0.72274143360768       1.92088914549564      -1.22781529434092
H        -2.27186807309963      -0.02506214876979       1.88140817494712
H        -2.80625296555143       1.66850396833206       1.74925601679418
H        -3.12646077827802      -0.62898310785028      -1.85188647831014
H        -2.45211273941117      -1.50463753383997      -0.45293468877130
H        -4.16922042065945       0.04987946025664       0.35193886976089
H        -3.45567456730297       1.41560274048439      -0.57572127943922
H         0.32346103465928      -2.38789228923555      -1.02892660715270
H         1.87757731191466      -1.61720179189893      -0.53409681077657
H         1.75461853413055       1.93340756116635       1.10631384687273
H         2.53791736506889       0.35234739526357       0.73017735860645
H         1.77839131925816      -3.97798696090897       0.15194620874992
H         0.27453853196731      -3.67160563715641       1.09895715599330
H         1.83619198321039      -2.89954358108256       1.59756853369489
H         4.08602502939125       2.21833672056700       0.35155981787042
H         2.93991702556662       2.98303040942041      -0.81154590908371
H         3.71221045797638       1.39228963478472      -1.20625402876650
B         2.92172985650925       0.50111511200067      -5.01604441604037
F         2.66543965321195      -0.89471491051187      -5.07922877469530
F         2.59564497873547       0.98496188125147      -3.72296938887718
F         2.12932953477534       1.17311240792923      -5.98437882786416
F         4.29665807351157       0.74329656056441      -5.27722714241170
