42
C10H18F6N2O4S2 optimized with ADF in AMS.
N         0.75621709270268       0.70125479496535       0.13934744896797
C        -0.00748236363681       1.31551384354556      -1.03148892272525
C        -0.06823178401615      -0.42351073451795       0.72450523880397
C        -1.39429583231191       1.79022286717770      -0.64745168936914
C        -1.45719047892206       0.03402025106606       1.14597811023133
C         2.06803701353035       0.17508865758405      -0.42495648132322
C        -2.21648900284178       0.66583228627887      -0.02067144858729
C         1.05730298442765       1.73536315131357       1.18410811609362
C         2.99242139683089      -0.46870948015138       0.58856807597529
H        -0.06528391527697       0.51097376607885      -1.78356107206582
H         0.62242938086413       2.12909422755568      -1.41824118603853
H         0.49481297240152      -0.83424261011176       1.57325599967628
H        -0.13442925990831      -1.19232176999063      -0.06326047233250
H        -1.86711159592069       2.16082336083000      -1.57175174040641
H        -1.32692165194960       2.66860104752201       0.01458959237495
H        -1.38324539642386       0.74206382477561       1.98870360811081
H        -1.99056675418053      -0.85130693079268       1.53036133858580
H         1.78783057399126      -0.53982895247825      -1.21404917375700
H         2.54081059218051       1.05201966892463      -0.89524520592878
H        -3.19362433128145       1.04220320216608       0.32053513049676
H        -2.41847311688572      -0.11052199538151      -0.78220475271381
H         0.15692910012926       2.31048890513219       1.40512136504914
H         1.40576420080190       1.23177709609567       2.09228970257592
H         1.83259374961648       2.40957694144472       0.80070169237617
H         3.90257038287426      -0.77679053325395       0.05266208193799
H         3.30583505488324       0.23115022272629       1.37502629603125
H         2.56455493843646      -1.37056149164853       1.04905968238961
N         2.66677594351190       4.77229952874890       0.44075889131601
S         2.30167612092497       5.85267493146940       1.59974126799806
S         1.80661163788180       4.59321366882752      -0.89596598386140
C         1.36359752328025       4.82332941154271       2.87915085922329
C         2.29091490739526       5.98168400398892      -2.09040402296763
O         3.53235686350252       6.16604513053284       2.30627768796736
O         1.35476722795249       6.88989768065080       1.22001180562138
O         0.35042050516204       4.69648080040958      -0.77350702430668
O         2.34609456523204       3.39545277222399      -1.56454795340242
F         1.22069118242480       5.54185249059363       4.01297862974567
F         2.03480203176913       3.67484546141164       3.18928471501825
F         0.12031626921394       4.46911696861860       2.44717093945672
F         1.77052634077239       5.68256153143546      -3.30927761695996
F         3.63377282457554       6.07025082301662      -2.20488520920419
F         1.80354165958616       7.17024205717315      -1.69321235667359
