58
C16H22F18NP optimized with ADF in AMS.
N        -0.37497931490572      -0.04830291614092      -1.10391417951860
C        -0.66464338998614      -1.52516342616741      -1.30829552225100
C        -0.73731169748518       0.14875872428467       0.35181512534781
C        -1.95091710739717      -1.78394792415456      -0.52465608947782
C        -2.00622396781787      -0.67692499463470       0.56147488457125
C        -1.29676000783575       0.75964614525684      -2.00787503135456
C         1.07920871787009       0.28278952981943      -1.34731946148489
C        -1.09202660563557       2.26392182308740      -1.95815831651413
C         1.55868180640039       0.03164293671159      -2.76667594992226
C        -2.22102598025124       2.96126635851676      -2.72228244538219
C         3.04400990325586       0.37262600904606      -2.87904668277256
H        -0.73846341085981      -1.73462407919937      -2.37953573275967
H         0.19296996071229      -2.06583250708097      -0.87971117953474
H         0.10553076970759      -0.25363457284797       0.93371089122045
H        -0.83717469074263       1.21974480881671       0.56470145187542
H        -2.82289031081349      -1.73688343677995      -1.19087195040099
H        -1.92776831075461      -2.79323916087250      -0.09033086564834
H        -2.02355564057374      -1.08769856490553       1.58101028179246
H        -2.90614627272449      -0.05520551158961       0.44788954450048
H        -1.14530874941562       0.37224480884957      -3.02136017359097
H        -2.32102485746698       0.49497621702805      -1.71031607539311
H         1.21121832859716       1.33781583588743      -1.06133256111876
H         1.64752620237526      -0.33390680674851      -0.63149937870177
H        -1.07473914064573       2.63232776512307      -0.91738566326923
H        -0.12582114869012       2.53020867489666      -2.41764387131123
H         0.98564333071768       0.63356554340414      -3.48799214981627
H         1.39504416279966      -1.01988621216539      -3.04772259084865
H        -2.25249170347322       2.62468609902591      -3.76760701095779
H        -3.19896376030330       2.74662240753321      -2.26445022574743
H        -2.07267127836541       4.05055293734820      -2.71484142867159
H         3.23217075865622       1.43265982920353      -2.64635813840041
H         3.65095954190668      -0.24136947660717      -2.19480371221330
H         3.39581438950091       0.18437519363842      -3.90318962316623
P        -1.49024550598947      -1.55115288079614      -5.93782336472781
F        -0.04808093967966      -1.65761507421142      -6.75605060836721
F        -0.62971426053472      -1.27425613185423      -4.48900115698392
F        -2.39981342697464      -1.79923731717890      -7.29682981960479
C        -1.45223777276166       0.39284029235494      -6.34852489692241
C        -1.30702131143333      -3.51664392675675      -5.72073879918550
C        -3.14031551708892      -1.38352094139759      -4.79091754995615
C        -0.53098085062218       0.88232224894800      -7.51396354980200
C        -0.21782007391348      -4.06331362683642      -4.74533961540363
C        -4.57008930911749      -1.63746652780501      -5.35963238777210
F        -1.02587422088874       1.16050456614420      -5.26134469238585
F        -2.70913354397491       0.83755782307306      -6.67769577789479
F        -0.97849215627228      -4.03737187824194      -6.95068487796333
F        -2.47119203465509      -4.14883284046982      -5.33993136015839
F        -3.20963897279328      -0.10432112703678      -4.24969356115751
F        -3.01610091443357      -2.22236421289329      -3.69199491204121
F        -0.80077102810029       2.20091263271589      -7.76075494780466
F        -0.74472483353915       0.20120071573855      -8.65626704130965
F         0.78119646312665       0.80641501704199      -7.18245201351653
F        -0.10048131640984      -5.40965626935689      -4.89800759100211
F         1.00044932670938      -3.51731525643372      -4.95572531759331
F        -0.55609358072285      -3.84334866240143      -3.43879342737752
F        -4.90272722207334      -0.71531108538064      -6.28697711024552
F        -5.47678073047982      -1.53635969663529      -4.33527601804937
F        -4.70261458173335      -2.86414219691348      -5.89928546025409
