54
C14H26F6N2O4S2 optimized with ADF in AMS.
N         0.52886488445958       0.36346036659032      -0.37169710252037
C        -0.74374690821605      -0.12309634678276      -1.02593443294930
C         0.24851656261992       0.72178835629596       1.07808173100922
C         1.62345753278004      -0.70343453100374      -0.39935017957143
C         1.05164059747183       1.58671121855829      -1.11962257207968
C        -1.39975474240212      -1.27352263031030      -0.27677840490798
C        -0.37469466859198      -0.42697742566787       1.85537413327545
C        -1.66033180777581      -0.91210127560346       1.18598825979720
C         2.17197641393162      -1.05013977245809      -1.77021106132732
C         0.29170840808612       2.88843853243368      -0.93172067251204
C         3.32354304631631      -2.04877419145465      -1.61191984771264
C         0.88296194165459       3.92900768933547      -1.88744456424609
C         4.02093695236493      -2.31637890997972      -2.94225981634536
H        -0.48620079155248      -0.39668567521153      -2.05862250194251
H        -1.41875627278290       0.74529536966691      -1.05538251909823
H        -0.45163832328685       1.56863436280719       1.05248670014363
H         1.20811404182661       1.04804737585114       1.50742069404208
H         1.21050449606349      -1.59446416938684       0.08924862679694
H         2.42742338063586      -0.29693429494820       0.23140804690702
H         1.05315678471409       1.30370506638591      -2.18178814230458
H         2.10022620900520       1.70039641079627      -0.80268261661837
H        -0.77721407577608      -2.18140619921662      -0.34435461256877
H        -2.34416715554691      -1.50861215900346      -0.79611311027956
H        -0.57947786398046      -0.05370005954151       2.87238049634678
H         0.34355365173748      -1.25410279810111       1.97627858951584
H        -2.41912736229937      -0.10842129126147       1.23093650752310
H        -2.07822663079705      -1.77678850915576       1.72575030680659
H         2.58561435213511      -0.15596860645538      -2.25953219111174
H         1.39600721513466      -1.48511318738321      -2.42599735491473
H        -0.78626472450007       2.77120968730052      -1.13942912944005
H         0.39976078914118       3.25401059303841       0.10063789628531
H         2.95148173452877      -2.99356653322808      -1.17434381821789
H         4.05000746710878      -1.62456425271432      -0.89864490870993
H         0.40473682522781       4.90694684841527      -1.73631083039639
H         1.96324512454011       4.04606622337271      -1.71528192737986
H         0.73764490024746       3.63236676104979      -2.93746011267320
H         4.41484675620428      -1.37666630120926      -3.35967399412994
H         3.32679736780588      -2.75717867481809      -3.67654733258756
H         4.86470304453031      -3.00976822985421      -2.81225991034840
N         4.17906226622752       1.36690754515291      -0.24860499666978
S         4.41615538102709       1.73022447628226       1.30211987758739
S         5.11996983764065       1.84146757284679      -1.48141223546723
C         3.94361941211994       3.55044728260178       1.53915525373830
C         6.66713923123332       0.74311566106415      -1.42989118513733
O         3.33212475049299       1.04039595194290       2.01604593565889
O         5.78172212204312       1.64029455807629       1.79348544332463
O         5.63094785667568       3.20157953503791      -1.38153236723256
O         4.42315951688670       1.39513854080900      -2.68724613144912
F         3.62799010036038       3.74543047852249       2.84357581922295
F         2.84083553263575       3.85840568284422       0.79399461695480
F         4.93656248904285       4.38722984880211       1.20591253355050
F         7.26737083438788       0.80599643495350      -2.64383842412902
F         6.33929970863562      -0.55091597459191      -1.18291577917445
F         7.53980879192662       1.15513074770739      -0.49450589723321
