43
C13H28ClN optimized with DFTB in AMS.
N        -0.72040509206259       0.42638297478698      -0.14482464056794
C        -1.70318614864016       0.27559489427262      -1.26858051370287
C        -1.26897789433925       1.41024592746457       0.85384130179059
C         0.53497482243304       1.00611685067488      -0.74896380892006
C        -0.44865678839223      -0.88489976961999       0.54320516630185
C        -3.09396455221124      -0.13898267013829      -0.80035980414784
C        -2.64999262025351       1.02633971012044       1.36362282933481
C        -3.64300423820389       0.86162481587122       0.21531128761988
C         1.70019503333118       1.19954366524871       0.21816417542992
C         0.26960349781583      -1.92795687824998      -0.30537610412659
C         2.89979337368904       1.77379865789531      -0.54291563627652
C         0.43994193551655      -3.20342234305812       0.53161089903985
C         4.07799729030024       1.99702867100217       0.40313423130503
C         1.17874792370727      -4.28342084115239      -0.25425657883259
H        -1.30038002501984      -0.45623795238909      -1.97170526992082
H        -1.76054649514732       1.24595440075217      -1.77025305576481
H        -1.30488663532731       2.38417905290185       0.35788637526663
H        -0.56861152754726       1.44352336470826       1.69743396705206
H         0.25056527561246       1.97069270789582      -1.17997614524554
H         0.82827416182649       0.34467803023963      -1.56856399105763
H        -1.41000732069987      -1.28340092223008       0.86857181103494
H         0.13957392446748      -0.64637942420529       1.43859176534574
H        -3.07207016711437      -1.14285794150226      -0.36859943333293
H        -3.73893988359339      -0.17237848207604      -1.68271463791168
H        -2.98184365712614       1.82692634812825       2.02962242735984
H        -2.59687451851562       0.10911973800027       1.95445003366050
H        -3.80625869974441       1.82740957928323      -0.27476915503976
H        -4.60301011755201       0.50777419343975       0.59828485882386
H         1.98496453730144       0.25204446026937       0.67732419240881
H         1.42051162396618       1.88197937830380       1.02238545396441
H         1.25765767167223      -1.57223758535811      -0.60746338814037
H        -0.29909312061701      -2.16206502442545      -1.21147826999077
H         2.61842365984966       2.72420894910905      -1.01027080344490
H         3.19470914187725       1.08271831995660      -1.34077248965019
H        -0.54516995795562      -3.57636479328819       0.83040443682585
H         0.99899480690819      -2.96376817181924       1.44085778177243
H         4.37988868424718       1.05553645401898       0.86251843493017
H         3.80334436415464       2.69572109720024       1.19350491541416
H         4.92564115543598       2.40583591493486      -0.14704827015208
H         2.16978744396348      -3.93365032304340      -0.54638478021272
H         0.62468431059422      -4.55069820160069      -1.15552362007800
H         1.29314439766838      -5.17577708259778       0.36088807755958
Cl        0.69829344032459       0.48637977177529       3.21848359937571
