32
C10H18N2O2 optimized with ForceField in AMS.
N        -0.68331682927876      -0.87084326149643       0.39853224224596
N         1.51300056889258      -0.53950213871496       0.29850205956011
C        -2.08302592757232      -0.75157806714432       0.80371084654877
C        -2.90475445345744      -0.00821310942835      -0.25646336872277
C         0.37193751566329      -0.23768886100029       0.94702530928726
C        -0.19265148488558      -1.60124739109831      -0.62328603181244
C         2.84074648929530       0.00603842397203       0.56586582772413
C         1.17012639401794      -1.39192900761128      -0.68814801823786
C        -2.41506143668080       1.42521890475135      -0.45893303302104
C         3.16158361868002       1.12009149112342      -0.42341142504265
H        -2.15654580075691      -0.20873210865866       1.77149914588648
H        -2.50744070675092      -1.76722631879649       0.95607222642913
H        -2.86009765355386      -0.55469275874239      -1.22311579547716
H        -3.96651532782130       0.02035303332144       0.07047535684928
H         0.30638369241801       0.45287137498488       1.77840296539706
H        -0.78261971597822      -2.22614190702859      -1.28107528971995
H         2.88088126788979       0.41641845934737       1.59850103238341
H         3.60098564750523      -0.80079331863565       0.48600922189798
H         1.85625459467722      -1.81804179609391      -1.40856926004346
H        -1.38941456195875       1.42891086225864      -0.88514349352774
H        -2.41234026417305       1.97406114972368       0.50682289361196
H        -3.09031787077301       1.95233136196819      -1.16512851325636
H         3.15122907973886       0.72719860461414      -1.46206138128913
H         4.16784919711388       1.53572657254994      -0.20622282504765
H         2.41045098228685       1.93375944798504      -0.33341391466601
C        -0.26201636546631      -2.82472015221927       5.50294009704225
C        -0.35999762488992      -2.23764076806569       4.13068579698803
O        -0.67484383051720      -1.06724419621397       3.99211747876548
O        -0.12635131565708      -2.92320248757110       3.14810882671036
H         0.51066626743896      -2.28094228028329       6.08596745297692
H        -1.24049516018562      -2.73041400308588       6.01903598374137
H         0.01522551103910      -3.89935324091128       5.45254881321827
