35
C9H18F3NO3S optimized with DFTB in AMS.
N        -0.43189598701199       0.28295132469811      -0.17378253178982
C         0.05709911261289       0.00565822814243      -1.56813640797535
C         0.83151123721360       0.26592746785371       0.62870980914780
C         1.38144014589120       0.75257179666310      -1.68854936677301
C         1.86421369438713       0.97191379600174      -0.24650377434013
C        -1.35790653719118      -0.79862190417416       0.29508404100709
C        -1.08791240314302       1.63687714011358      -0.13521631024219
C        -2.66787872479145      -0.86119472743238      -0.47756216176435
C        -1.55145417802065       2.08495603649484       1.23965301550826
H        -0.68771480545438       0.33807737927214      -2.28897587929043
H         0.20132542868258      -1.07379824563805      -1.65562245298035
H         1.10521423533304      -0.77987784982705       0.78884467555773
H         0.67110187866998       0.74344130710096       1.59404841003778
H         1.23295431330052       1.70478158586429      -2.20060183009219
H         2.09351719587927       0.15938250117080      -2.26418163186479
H         2.85404642539359       0.54529071804366      -0.07712698515287
H         1.90735378067752       2.03645313734910      -0.00819905634438
H        -0.81527672008211      -1.74197865622755       0.18812882299678
H        -1.54404730925278      -0.62972141709294       1.35859495437387
H        -0.37356121156212       2.35205313310394      -0.54454133835802
H        -1.93898679621059       1.59070221470170      -0.81540296378012
H        -3.18678199673122      -1.77412252663506      -0.18628535732033
H        -3.30923514217080      -0.01258671927771      -0.24942073772340
H        -2.49654248752039      -0.88337622498293      -1.55143085142776
H        -2.05572145411037       3.04213008223651       1.11001238737995
H        -2.26267933756734       1.38718313746219       1.67972308388155
H        -0.72238413641115       2.22879739146416       1.93193813012544
S        -1.99306073877800       2.30735078700048      -3.45228946383368
O        -0.70063805432846       2.66415112824792      -2.87279090709120
O        -2.58266220089695       1.12340225269439      -2.82317021919310
O        -2.06208176532176       2.34108846976643      -4.88644413874361
C        -3.09473859744690       3.66849896602071      -2.84605595661069
F        -2.65334954222119       4.86457836447848      -3.20948941934214
F        -3.11481122677392       3.63143251419215      -1.50266712626483
F        -4.34160487584258       3.52963360805034      -3.27227611251752
