26
C8H15ClN2 optimized with DFTB in AMS.
N        -0.78655615565620      -0.87570421071838       0.39617875952982
N         1.35093030714233      -0.63377991975079       0.31484408718873
C        -2.19460295722409      -0.67864329326506       0.73377536955436
C        -2.85498588316104       0.26403467057155      -0.27423031740995
C         0.23548242398032      -0.20393852826826       0.91582883253470
C        -0.33169918100954      -1.73341332773645      -0.56442881173746
C         2.68938579025245      -0.10671035670293       0.54176936691661
C         1.01668242207323      -1.58118479857467      -0.61974023584153
C        -2.20483101383440       1.64338482440544      -0.31194222201894
C         2.97437304695952       1.02388447094321      -0.44258716057267
H        -2.24621383239487      -0.28279669784220       1.75171097867649
H        -2.68208824167902      -1.65655695505618       0.67256174903453
H        -2.81831075234394      -0.20405942284664      -1.26128178679316
H        -3.90542460607624       0.35738100036687       0.01313786326660
H         0.18484900784618       0.53139916817474       1.70021440801912
H        -1.03845334508477      -2.36329911620971      -1.10348894051762
H         2.74525973325800       0.25273980725077       1.57296910436855
H         3.40217317488289      -0.92493263740810       0.40914479859866
H         1.75925394347390      -2.06577591560030      -1.22853402376434
H        -1.16337255567073       1.57379060521061      -0.63217250444117
H        -2.23476849777665       2.11429986631645       0.67276482449217
H        -2.73799077696768       2.28041051132617      -1.01707828253756
H         2.90770341707954       0.65893777493688      -1.46685846854083
H         3.97751490762860       1.41020273028527      -0.26841468572419
H         2.25467481125732       1.83111497203529      -0.30966616023745
Cl       -3.07822399425512      -2.84529809144360      -1.38393405524349
