60
C16H30F6N2O4S2 optimized with DFTB in AMS.
N         2.18246678518660       1.18322887295382       0.50351150127941
C         2.98183916639583       1.46524843313245       1.74426310245234
C         2.18895118157087       2.47979903807490      -0.26386406901449
C         2.84048261480306       0.11113965420371      -0.31368879370617
C         0.77756547933970       0.83579653504942       0.90330590708947
C         2.67034008816081       2.91070908218931       2.10093153008440
C         2.39235497282456       3.59758144801503       0.75876137113846
C         2.95473277959905      -1.22771165523162       0.41140803314704
C        -0.11333819607189       0.35290678523159      -0.24041080037028
C         3.46685725775278      -2.29972717362643      -0.55796129732913
C        -1.56114857434080       0.24166924334451       0.25282985076089
C         3.63968358158776      -3.64477686943133       0.15369225597469
C        -2.48108979406467      -0.27320714314870      -0.85884079776010
C         4.18862814092421      -4.70445353199271      -0.79938170312381
C        -3.92508988434715      -0.38590057921281      -0.37444184921983
H         4.03640693527061       1.34832043285862       1.49207669244970
H         2.70984738709746       0.75472638179745       2.52443174625947
H         1.25281551198812       2.57443040974012      -0.81343038023724
H         3.01175830011515       2.45033183982388      -0.97778103032915
H         3.83690144943293       0.48272940991491      -0.56115586862930
H         2.26984732165941       0.00856079136183      -1.23899967837933
H         0.35200375752474       1.73660040597744       1.35278758324077
H         0.83168785535908       0.06390087408918       1.67455202744107
H         3.52260337880151       3.36214822914196       2.61051546817089
H         1.80060487370122       2.97373315304924       2.76017096605083
H         1.51266330105716       4.24051437661088       0.82137071161079
H         3.24743004037963       4.20596143120839       0.46095988631034
H         1.98551490917898      -1.54054625951131       0.81017491202789
H         3.65196485750457      -1.13339001190419       1.24829710176483
H         0.22032460868521      -0.62684691092046      -0.59140120344480
H        -0.07240953582097       1.04637189501310      -1.08426733667986
H         4.42612185848165      -1.98391975281648      -0.97535155538713
H         2.75849328039653      -2.40798412174928      -1.38635274955881
H        -1.90723951497705       1.22428317639540       0.59067030643687
H        -1.60183394989174      -0.44034457864817       1.10877940515618
H         2.67435525226798      -3.97399069967628       0.55405652676404
H         4.32787190082386      -3.52208056387998       0.99655065549291
H        -2.13008219005946      -1.25469614248033      -1.19424909713079
H        -2.43409222556181       0.40957236670254      -1.71355993735432
H         4.30192207555621      -5.65351974331048      -0.27562419405099
H         3.51135459213467      -4.84979256509906      -1.64207366960346
H         5.16260337731574      -4.40061647157015      -1.18405465095503
H        -4.55947566757476      -0.75266069509847      -1.18106033917429
H        -3.99399776201970      -1.07877665256662       0.46507389510433
H        -4.29798591709369       0.58752643642197      -0.05355974865351
N         6.90510535409456       2.31082517047150      -1.84718674714222
S         5.68900289610470       3.05942810641109      -1.15610287253236
S         7.77103771279987       1.34410034253549      -0.88631630712865
C         6.27665187586278       4.71678446129780      -0.50544896930380
C         6.68532884291126      -0.18178176340498      -0.67673274683569
O         4.72718552370207       3.42912500460856      -2.17146849521690
O         5.13202631608954       2.41025997750198       0.03014543791383
O         7.99885552156689       1.82182667140389       0.45170749918530
O         8.88392965326279       0.87273000418061      -1.65717559891539
F         5.20415636494147       5.37012762648302      -0.05354884290223
F         6.82846254388724       5.42833961416753      -1.47190085880306
F         7.13436201389685       4.58655274266563       0.48538309483724
F         7.40588524718635      -1.28646234841764      -0.75838665580929
F         5.75882824873558      -0.21890552409528      -1.63901018557164
F         6.04385757330407      -0.19076714403601       0.49071466070908
