54
C16H36ClN optimized with ForceField in AMS.
N        -0.00213885222259       0.00742011034130       0.00101801401104
C         0.83246371929020      -1.02988725063626       0.70702011036364
C        -0.86720332895428       0.70002287774498       1.02115458623650
C        -0.83458130678760      -0.68179093607544      -1.04904652165605
C         0.86155666013601       1.04052672484829      -0.67488590057862
C         1.88663936081557      -0.49101203087527       1.70945900603025
C        -1.92320315292821       1.68777430766462       0.46017000249777
C        -1.93957018464271      -1.63716181597652      -0.52582458231573
C         1.94285359555150       0.49566581609694      -1.64416825782521
C         2.64549056644047      -1.65218375370535       2.36783474241845
C        -2.72485744920402       2.32194843709396       1.60501102646457
C        -2.66761714567694      -2.30948211803269      -1.69847647421386
C         2.73606129941048       1.65266712392714      -2.26851642230346
C         3.68625865986037      -1.14431323192825       3.36222755428662
C        -3.76604077171298       3.30362660416014       1.07556336457008
C        -3.72125096521427      -3.29769863399077      -1.20642273398515
C         3.79843397513202       1.14111461233658      -3.23746893801282
H         1.35489762006615      -1.67985645540568      -0.02985219556452
H         0.17919530734388      -1.71359886603788       1.29012335094986
H        -0.23637217391242       1.29359630590696       1.71705122388400
H        -1.39056556172324      -0.04600805676496       1.66055854100536
H        -0.18323420493885      -1.29583246356109      -1.70820812271420
H        -1.31377213502760       0.06471976296916      -1.72156002245734
H         1.36196663634849       1.68733942774783       0.08010275624490
H         0.23192250843091       1.72847201432343      -1.27897480708078
H         1.39727659620764       0.09206370951705       2.51525671632206
H         2.62481884297634       0.15933040828353       1.19831458300596
H        -2.63400942872332       1.17294515854723      -0.21645464202796
H        -1.43155469043885       2.50615572229565      -0.10290365838402
H        -2.69048540969770      -1.08829558704710       0.07704150155132
H        -1.50290250277680      -2.43275188866798       0.10733914418297
H         1.47255540828796      -0.07739028217676      -2.46867691953797
H         2.65645140081008      -0.16598870216441      -1.11323082477031
H         3.15776979987538      -2.25703373956447       1.58810031586479
H         1.92887431350377      -2.31009175509825       2.90696104374009
H        -2.03576202993842       2.86603141415207       2.28774587412127
H        -3.24149570107750       1.52816368755554       2.18766267232353
H        -1.93588088995651      -2.85758345969630      -2.33192785269664
H        -3.16277925304895      -1.53516325909666      -2.32442308935332
H         3.23365033268423       2.24210251921575      -1.46771035031082
H         2.04465458188166       2.32611231505198      -2.82119424178563
H         3.19695882506616      -0.55609525449241       4.16776385125055
H         4.43583083495612      -0.50758624402707       2.84591783474355
H         4.21157961056282      -2.00712234996147       3.82388119210676
H        -4.48909057661053       2.78001167247806       0.41457054441595
H        -3.27234549631918       4.12011405422973       0.50649430924074
H        -4.32179097221416       3.75071453298969       1.92671297574834
H        -4.47353200561343      -2.77951571432576      -0.57457305887404
H        -3.24295604264806      -4.10953334158487      -0.61774410427189
H        -4.24061153254782      -3.75112696914246      -2.07710516504448
H         3.32480802184824       0.56867725388957      -4.06342234976942
H         4.52385325209168       0.48872917295745      -2.70649119984638
H         4.34849437061685       2.00172845374096      -3.67376680785656
Cl        0.38770419596200      -4.70791999442944       0.04939528645627
