53
C15H32BF4N optimized with ADF in AMS.
N        -0.76346227190258       0.61249445533486      -0.22054779842816
C        -1.28095377587057       1.67777809622389       0.72355942767289
C        -1.71934679980823       0.49284243248591      -1.38671913676121
C         0.60047249755690       1.04306481787708      -0.78393248537295
C        -0.61973882386791      -0.71959454081565       0.52696264477515
C        -2.72821090255245       1.47330371271394       1.15446910901832
C        -3.14532635544978       0.19741892657748      -0.95339154630778
C        -3.66582737077401       1.30498932348187      -0.03887926335784
C         1.59934550461180       1.57610320360658       0.23009066666773
C        -0.50445250550987      -1.95647810119548      -0.34644315313934
C         2.98058868798997       1.70533162276859      -0.42979180349339
C        -0.20369563047015      -3.17785631534487       0.53179745870119
C         4.09123584738330       1.94105006059564       0.59482697742985
C         0.04113602972645      -4.43587979892545      -0.30056699130550
C         5.47950534968936       1.83532067568581      -0.03324560232510
C         0.40056518556217      -5.63813859506707       0.56909719704174
H        -1.17354452859704       2.63271781093890       0.18310968127511
H        -0.60364532787519       1.69159043614954       1.58750550521867
H        -1.30744029575280      -0.27204123478317      -2.05774202327041
H        -1.67970286595709       1.46372104357208      -1.90618561440114
H         0.37518602727581       1.80519154463180      -1.54727099413648
H         1.02032478810947       0.15042333210851      -1.27359828513821
H        -1.48714356871050      -0.79706214728699       1.19513501196693
H         0.29283612519919      -0.61902892273531       1.13084490346690
H        -3.01144957297305       2.35175364912619       1.75803103563052
H        -2.81206251186754       0.60298816826245       1.82611061078801
H        -3.20128719224391      -0.77938350716689      -0.44513332341508
H        -3.76090538260133       0.11433210571093      -1.86414472203823
H        -3.71754487477217       2.25249175338107      -0.60574992013581
H        -4.68769509156843       1.08031081495571       0.30495442152985
H         1.28527393069725       2.55402584887787       0.63426486101686
H         1.70752850843689       0.86331677244668       1.06189092601024
H        -1.43790907142488      -2.13896232210142      -0.90725232429326
H         0.32666827995087      -1.84450496134297      -1.06128764323520
H         2.97202413409672       2.52390558821119      -1.17475665991424
H         3.20338345308359       0.77053782425283      -0.96796381727225
H         0.70463268933670      -2.96864689488219       1.12107633491535
H        -1.03776548489138      -3.35048104500059       1.23967282404836
H         4.00023190711295       1.16991296386091       1.37974184643412
H         3.95891697629516       2.92600151778221       1.08130283420921
H         0.87748680087981      -4.23108448301126      -0.98949717785084
H        -0.85205380980789      -4.66324408647667      -0.91273102917254
H         6.26722041218106       2.03701796445146       0.70890631094901
H         5.62941681571653       0.81759066658191      -0.42465178137914
H         5.60297811513950       2.55074582038544      -0.86293158779383
H         0.57972009386676      -6.53343460578521      -0.04596465636443
H         1.32131054273270      -5.43114253566100       1.13703754068400
H        -0.40364951099926      -5.87371276513425       1.28590541931476
B         3.14522925398391      -1.89411730186799      -0.31072209840412
F         2.46830568387248      -1.30702817866460       0.82380260511064
F         2.43719295396241      -1.46676959041715      -1.50247805352344
F         3.08447442697513      -3.29558221856982      -0.21308639178923
F         4.46701811012319      -1.41955530340334      -0.36100445545627
