52
C14H18F18NP optimized with DFTB in AMS.
N         0.75160891242763      -1.23801350034816      -0.34493732487119
C        -0.48452849800998      -0.46264568536559      -0.69862477690746
C         1.40119785160106      -1.73530819955564      -1.60523007436342
C        -1.46647955671859      -1.26385746187436      -1.54788179799391
C         0.45852061449065      -2.56829524669861      -2.46118166081657
C         1.68623074399470      -0.28505203023087       0.35777403413135
C        -0.79523423200581      -1.77787774776475      -2.82096049635206
C         0.41120346022523      -2.36030502177125       0.56935698718993
C         2.98192774849847      -0.90502169137148       0.85925821111811
H        -0.15598971467519       0.42407056423060      -1.24810968293014
H        -0.95099385334548      -0.14578290086686       0.23750216579708
H         2.26936196745923      -2.32414715902564      -1.31628355405518
H         1.73599345229958      -0.85260039447429      -2.15708720493050
H        -2.29490917575327      -0.59725925987487      -1.80170221549444
H        -1.87696596817498      -2.09834402479204      -0.97361629008159
H         0.19368881857419      -3.49583921677010      -1.94913148104693
H         1.00372338799901      -2.84224356073629      -3.36695111515485
H         1.90721834186675       0.51458065148808      -0.35404509404034
H         1.12636721813473       0.13978077625112       1.19597010658035
H        -1.49160567891668      -2.41567607519571      -3.36943451340530
H        -0.52982253547325      -0.93101155573171      -3.46220173932514
H        -0.30143097906270      -3.02519781746196       0.09086168995544
H         1.31426838242350      -2.91733840247526       0.79582705275536
H        -0.01803821086074      -1.95183842408821       1.48256073586945
H         3.59189008582418      -0.09895604704237       1.26668498332890
H         2.80427175931361      -1.63044197113108       1.65042437455305
H         3.54196236315802      -1.38583529493079       0.06100619142283
P         3.52653584779934      -5.52682580425630      -2.14039043325762
F         3.82710815441601      -5.78323893402736      -3.74986218338982
F         2.94034583387645      -3.94939517833470      -2.45057717672093
F         4.05643807175928      -7.06314145859628      -1.76962563823464
C         1.70685401982379      -6.12913572282579      -2.57000203296388
C         5.36104435676027      -4.74123739036408      -2.02405127025919
C         3.23461930038725      -5.25563343156737      -0.13898405767736
C         1.43997698166365      -7.62080987473714      -2.89786595154323
C         5.64504034094636      -3.38380884972506      -1.29815272855232
C         2.18494303614333      -5.93083084287001       0.79191876930894
F         1.28023888016871      -5.43636100202759      -3.64504613602216
F         0.86833013708618      -5.78520343176903      -1.56062764203801
F         5.77503118638457      -4.50803528367919      -3.28244560829668
F         6.21523914664775      -5.62722417398097      -1.48973586199748
F         3.07318001520097      -3.91389202680088       0.10027451742919
F         4.42362608598317      -5.59017032052252       0.39447394275780
F         0.15523602446577      -7.78543272637878      -3.23328372314031
F         1.68914128876313      -8.40791619876081      -1.85763911471879
F         2.18377924153839      -8.02304342013569      -3.92016814879757
F         6.82752039480629      -2.91520613784393      -1.69749412142651
F         4.73522266771013      -2.43895498994008      -1.59399219747463
F         5.68744230442024      -3.48342151052856       0.02553613285169
F         1.05283077772677      -5.20546579093663       0.83468209492897
F         2.64494317822020      -5.98365559064536       2.04252787478675
F         1.87714699910814      -7.16196085233771       0.41764795841497
