40
C10H22F6NP optimized with ADF in AMS.
N        -0.32574287249696      -0.49535505531321      -0.18730413088906
C        -1.26603184901374       0.23796149691304      -1.13460174452395
C        -0.43601133283407      -1.98889134348061      -0.46627605511280
C         1.07759910925756      -0.01957784894718      -0.50650263988459
C        -2.70062586748636      -0.24931538388186      -1.05375599799062
C        -1.86311136749356      -2.50973413800285      -0.39896548053504
C        -0.67430434555739      -0.23785805843211       1.27248092345283
C        -2.78679353606032      -1.74664237547950      -1.34632848289046
C         2.18509998502672      -0.56133560689988       0.38263994547249
C        -0.61059675201816       1.20932478332991       1.70402058795412
C         3.54400712244102      -0.06994890922145      -0.11903002805112
H        -0.84747488621387       0.06091738448515      -2.14024979303432
H        -1.17220611780093       1.30845440314385      -0.90608719782644
H         0.20957507105515      -2.49537726168703       0.26357032097802
H        -0.01239720401822      -2.12827400442156      -1.47587860441750
H         1.04936502591276       1.07950317637457      -0.45723098141314
H         1.25773356321240      -0.29860062374912      -1.55694324985141
H        -3.27836793064658       0.33308218670123      -1.79152713932970
H        -3.14208930733323      -0.03191488733861      -0.06740865544384
H        -2.25834158634554      -2.45980221719210       0.62863801562672
H        -1.81927507756846      -3.58018658846095      -0.66334069556415
H        -1.67999813888975      -0.62892271998527       1.44712939334934
H         0.01819472611611      -0.86444677976242       1.85211868116619
H        -3.82163794733046      -2.09056031235493      -1.20435352637969
H        -2.50081801768668      -1.94399786895767      -2.39834731091752
H         2.03942949488306      -0.22878026065589       1.42203030342806
H         2.17527476088094      -1.66292690288201       0.38641679648087
H        -0.90373699192699       1.22748390770138       2.76481593459527
H         0.39022889015211       1.65687876931406       1.61255190304303
H        -1.34623296207400       1.83405554197032       1.17930153596786
H         4.34896854932036      -0.45410828902330       0.52300446122649
H         3.74092200273798      -0.41051263332971      -1.14743205514298
H         3.60085132396804       1.02974404922759      -0.10798280846779
P        -4.31492809042142      -1.01761464010301       2.79660168395474
F        -4.01701949303759      -0.43174526133730       4.29952534474461
F        -5.00242803125184      -2.37123362672570       3.40600401818939
F        -5.75704245397059      -0.24652238479594       2.72802046789514
F        -4.53483466477909      -1.59078289026385       1.24240732063100
F        -3.56168169103540       0.34133515358540       2.13399274193868
F        -2.80788846597301      -1.77942411176148       2.80949550837126
