48
C12H22F6N2O4S2 optimized with ADF in AMS.
N        -1.76087132194406      -0.08280952118267       0.85702242682271
C        -1.90011611213869      -1.59259824737806       0.96635517309662
C        -2.78279206863847       0.39747357824312       1.87434759641988
C        -0.37506761108514       0.39228463465950       1.24122952157644
C        -3.39931842943769      -1.84400054243471       1.11611277756448
C        -3.98475226361068      -0.52691343127201       1.69223924766964
C        -2.13429096712097       0.38163488042939      -0.51059212779732
C         0.73396145526139      -0.12294859414739       0.34287021665280
C         2.09976497522075       0.31149523778153       0.88063193340517
C         3.25120463921651      -0.31867077957257       0.09963010043882
C         4.61575017943531       0.06153902930631       0.66639814459724
H        -1.37645853594430      -1.88098240932166       1.88474608248985
H        -1.43286686065845      -2.07101952176993       0.09745314390632
H        -2.97576651397968       1.46659050291710       1.70882814709738
H        -2.31530931914016       0.23696066874827       2.85618560701684
H        -0.22644123407208       0.04291615786196       2.27368521129458
H        -0.41787994762486       1.49430841533355       1.24056134612896
H        -3.53859806962701      -2.69499733888204       1.79623588585945
H        -3.87092063609001      -2.09913748249972       0.15539210606194
H        -4.73262799191804      -0.09057216508454       1.01281424779968
H        -4.47347241030312      -0.68604750104734       2.66336468032773
H        -1.46492542270717      -0.08452594631794      -1.24170694995637
H        -3.16852292425452       0.08505792798950      -0.71810568052074
H        -2.04043035593076       1.47441919728779      -0.55372806043847
H         0.70556349233203      -1.22435536534836       0.31535158847004
H         0.62161147051354       0.24531530490095      -0.69120621394675
H         2.18224908762471       0.01989801060426       1.94219861851518
H         2.18385241036139       1.41384653008859       0.84580939863088
H         3.18456567456252      -0.01503705669240      -0.96182776794528
H         3.13417694689808      -1.41732719097709       0.12147122258809
H         4.75606344863717       1.15440939333984       0.66189649085462
H         5.43223258355232      -0.38686142398868       0.08164196561158
H         4.71526644704648      -0.28633598874848       1.70664427620834
N        -0.14449053798471      -3.41177572869956       4.94287751444589
S        -0.29394090939232      -4.26607153066664       3.59044233603565
S        -0.88261942315834      -2.00975083475053       5.18033678752068
C         1.16368197771054      -3.64580300301722       2.52318495996904
C        -2.69547205793580      -2.45011492411816       5.59863101562959
O         0.04652603394987      -5.65027651263094       3.86011580413687
O        -1.47093158283550      -3.94348040046518       2.77660557306461
O        -1.02653087576586      -1.13882775450967       3.99672373774746
O        -0.37060882725076      -1.42868383902926       6.40894065581690
F         0.90206529034412      -3.87354971223794       1.20260600141000
F         2.31354737275556      -4.27113913132500       2.83869511270863
F         1.35308316896208      -2.30518776143050       2.67049423862394
F        -3.18130191757436      -1.54062527471492       6.47691815858552
F        -2.79024439703342      -3.67779125447698       6.14352613340475
F        -3.48428862792747      -2.40943883865357       4.48760563420012
