79
C23H36F18NP optimized with ADF in AMS.
N         1.46250683633814       1.74906526199988       0.30274488764652
C         0.25782036258216       2.62689838248585       0.00852925032317
C         2.68363885918890       2.63648943775489       0.51033056653709
C         1.23887479296950       0.90612630122437       1.55141823048483
C         1.66098955849304       0.86849697853939      -0.92201852590579
C         0.01400437275512       3.70214765889782       1.05316633928225
C         2.46408039747869       3.71846730830966       1.55369009176145
C         1.25000775792733       4.58230920621801       1.22914499646710
C         0.18610655212480      -0.18076333194676       1.41730913171608
C         2.82707012501125      -0.11666077098439      -0.88134350087260
C        -0.10014030896314      -0.80562465102055       2.78516826888431
C         4.11794716726026       0.37768314558548      -1.54053938115237
C        -1.12745082952045      -1.93157071708027       2.71749711940338
C         5.16533763271003      -0.72759649725836      -1.65347265800716
C        -1.37229090315367      -2.57601873298530       4.08098435430635
C         6.46996066864190      -0.24576511944582      -2.28520438096647
C        -2.40210470197512      -3.70127341296084       4.03105682261034
C         7.55440920734718      -1.32036825735747      -2.25975622036247
H         0.46792771493825       3.09234200693937      -0.96831826156677
H        -0.60618200240530       1.95916096412459      -0.10943643972524
H         3.51136350506380       1.98127701397904       0.80343842375108
H         2.89594451065271       3.07812662639878      -0.47692985660003
H         2.21529317743448       0.48713425591912       1.82207677650063
H         0.97527942597378       1.60601913183791       2.35264932987065
H         0.70239479240129       0.34792146670755      -1.05475259011626
H         1.77865844500951       1.56726009915241      -1.76585449646800
H        -0.85100989676485       4.29365908416732       0.70924488098035
H        -0.28153810590975       3.25105697259553       2.01505309896414
H         2.38020037046001       3.26891840374061       2.55488472969447
H         3.38949713140796       4.31496131085058       1.58138325512459
H         1.08102820018850       5.32308899677261       2.02557239065501
H         1.42872186219892       5.14565532772584       0.29392673919176
H        -0.75774328639056       0.22035951492032       1.00749606457088
H         0.53364136653622      -0.97177353455633       0.73140487878901
H         2.48768004762430      -1.02098373411292      -1.41728546361666
H         3.03576542823677      -0.44988726281423       0.14653392068849
H        -0.45408973535758      -0.02283835371285       3.48027267318197
H         0.83775931201208      -1.19444033181066       3.21254722475000
H         4.55173231610515       1.21392771078367      -0.96796720620548
H         3.88286025904092       0.76808599195956      -2.54941590979825
H        -2.08328737067607      -1.54322218323522       2.31610662181511
H        -0.77920875640352      -2.70461627102214       2.00615099398670
H         5.37805721233864      -1.12416230858947      -0.64691681439488
H         4.75471407256429      -1.56739169789567      -2.24590480022045
H        -0.41392223562983      -2.96311634085806       4.47142657116960
H        -1.70268212788134      -1.79895119454365       4.79410390637871
H         6.27983086782644       0.07591575130706      -3.32586773693807
H         6.82540873769026       0.64462085223984      -1.73783917873254
H        -2.55394649486154      -4.14729919705968       5.02556446353987
H        -2.07802762270627      -4.50313054622485       3.34814341954455
H        -3.37688303448636      -3.33043733922934       3.67500106783803
H         7.78348096035212      -1.61123034189499      -1.22225543070442
H         7.23029389353642      -2.22409013926375      -2.80041757900704
H         8.48638559797667      -0.96267563446242      -2.72306791821032
P         5.37231161431050       1.19138578777311       3.93451158136879
F         5.24247708107755       2.62969924924807       4.75371029111510
F         6.78511627417798       0.76114350205320       4.67255245556363
F         3.91457980364706       1.54398675623161       3.13607568332368
C         4.37769375232219       0.46741160526772       5.47726552704459
C         6.46062777460403       2.27744813491384       2.57479063966055
C         5.45183037862697      -0.46196369694414       2.74560973766544
C         2.90696028246988       0.93653429575054       5.72532533059916
C         7.72837971377620       1.78221013219661       1.79254206111097
C         4.60953736903805      -1.77523569891920       2.82239307578936
F         5.05030343999473       0.81244611450808       6.62591095035643
F         4.31147237056149      -0.91201250434315       5.47051388966840
F         6.96429850966037       3.35992052779019       3.25837028602684
F         5.62566912487067       2.79805257178146       1.58484779470164
F         6.74694012611788      -0.91329597328197       2.67046600203737
F         5.11343099538987       0.02496759684562       1.47818042511815
F         2.47710254684628       0.45024880829831       6.92280889340863
F         2.05207595154308       0.45708271874983       4.77589103611379
F         2.77560015768955       2.28057264016428       5.75865878524436
F         8.30488483882199       2.86373768525606       1.18393934529579
F         8.64382734837132       1.24222651966241       2.62179931277810
F         7.45188825903137       0.89677737058424       0.80545447931194
F         5.04278299733790      -2.62741485345667       3.76646675970456
F         4.70236270973599      -2.43488497256941       1.62445620807829
F         3.28652286626471      -1.51386837607170       3.01752078057724
