45
C11H24F2N2O4S2 optimized with DFTB in AMS.
N        -1.04295970591481      -0.02002373298232      -0.53056524707446
C        -1.79192159367444       0.18319636225341      -1.82367897820544
C        -1.36967538223322      -1.38237335200422       0.01548602650400
C         0.42175884122411       0.02125328421683      -0.87060824831675
C        -1.40100358389099       1.04208114722480       0.48135089597674
C        -3.28872225638205      -0.08337563270510      -1.72696301230174
C        -2.86428490304751      -1.62506813705249       0.18128188875846
C        -3.59343692229905      -1.46016555809442      -1.14861428258063
C         1.36584064878926      -0.20247644958624       0.30959369138935
C        -0.81855865729247       2.41794116184851       0.19928234247379
C         2.81201174713432       0.03607163501032      -0.14413596511127
C         3.79198702616013      -0.19519481823726       1.00380131802849
H        -1.33957531185509      -0.49558959076325      -2.55290181227079
H        -1.61632732025969       1.21271854477610      -2.14071339967743
H        -0.86425038498042      -1.47970372110518       0.97783800890485
H        -0.94632051088891      -2.11079281620463      -0.68325222765356
H         0.61449074393873       0.99325821380018      -1.32977454544864
H         0.59433136000900      -0.75117837372114      -1.62500029484863
H        -2.48715765506861       1.11294594026843       0.49369189815623
H        -1.06680230173422       0.68286395668804       1.45694152201400
H        -3.69009957092624      -0.00467448449156      -2.74055498729415
H        -3.76948411862837       0.68488369020694      -1.12377753603300
H        -3.28102478039079      -0.94590505708479       0.92669659938373
H        -2.98555001056989      -2.64642143593976       0.55189972902235
H        -4.66982453900433      -1.54841778191954      -0.98584828050399
H        -3.27921755758076      -2.24434030395348      -1.84614046336640
H         1.27206267030580      -1.22611805445220       0.68180734858100
H         1.13100582427020       0.47829809716180       1.13050955581675
H        -1.32787306828364       3.11818475259627       0.86109059089029
H         0.25082055310384       2.46750898491833       0.40054711496192
H        -1.01065717528390       2.73513066016713      -0.82313413161345
H         2.91227871511604       1.06311258225239      -0.50985760698905
H         3.04951744378635      -0.64027585401479      -0.97182884540636
H         3.71915092108020      -1.22031675032712       1.36859727842277
H         3.58000483549480       0.48448287411880       1.82973643238911
H         4.81105216437846      -0.01916388421945       0.66067544540557
N        -5.87851926604512       2.58569137796040      -0.01600707888956
S        -4.60768266101257       3.50756269157974      -0.20191651823400
S        -5.67526744423965       1.20305040048743       0.73703355915529
F        -4.08745647116328       3.85819342859772       1.29665643200093
F        -6.63723885723039       1.43143132593606       2.00541856321454
O        -3.45923785970236       2.86079255497439      -0.79388435497937
O        -5.02805293237396       4.74914387553325      -0.75230057481163
O        -4.38584872368550       0.93629782333609       1.32447796111338
O        -6.30151956424897       0.13832944774562       0.01524090654673
