47
C13H26F3NO3S optimized with ForceField in AMS.
N         0.97573896136199      -0.30845899023003      -0.00099129967204
C         2.05303746270676       0.08026495006187      -0.96362928053301
C         1.63769654599800      -1.23859839031326       0.96469705900991
C         0.47797322267873       0.89962243235705       0.73479529698174
C        -0.11720304627259      -1.02081175655772      -0.73975571751805
C         3.26402287190030      -0.79648422214904      -0.70529758973175
C         3.13626006857468      -1.16312830305524       0.74578154108332
C        -0.26322508322624       1.93231637467862      -0.14865797465797
C        -1.31131568184065      -1.46350572988221       0.14053907211843
C        -0.58175678811018       3.20120874430290       0.65129027771722
C        -2.29066291960487      -2.31840262515922      -0.67368613382855
C        -1.31644876484249       4.22823660857096      -0.20592532877308
C        -3.47507696927682      -2.77344750471321       0.17364871179675
H         2.38348711230529       1.13510997112573      -0.82432924758801
H         1.74506930844902      -0.01155683683829      -2.03047744854626
H         1.34141812557731      -2.29972322578085       0.79714478279310
H         1.40029127724461      -1.01151280127469       2.02920525842923
H        -0.20188318643362       0.59987554275934       1.56283339610680
H         1.33669533689658       1.41061804351291       1.23012091905468
H        -0.50876241822970      -0.38532529993068      -1.56462387561138
H         0.30369309984083      -1.92375973711302      -1.24104598904229
H         3.20915299270975      -1.71315326489316      -1.33372248373696
H         4.21659988552236      -0.25997308628605      -0.90920597080021
H         3.57198648480577      -0.35923686781642       1.37977412475831
H         3.63814449420819      -2.13004112356537       0.96935320745012
H         0.35260793238854       2.20720861955272      -1.03063186826875
H        -1.22075775951140       1.50464476229943      -0.51224382917135
H        -0.95679479374670      -2.05245074036455       1.01247431155197
H        -1.85842498989850      -0.57502975860549       0.51957532331927
H         0.36120248314946       3.65636783914849       1.02519539567821
H        -1.21871015149981       2.94102820155806       1.52484558626777
H        -2.67210940457828      -1.72838970811305      -1.53560989016483
H        -1.76733024444573      -3.21731631040537      -1.06594448323423
H        -2.27259167723626       3.80567315651820      -0.58161561790398
H        -0.68532984250998       4.53333729237395      -1.06769703798856
H        -1.54189094268215       5.12798169120317       0.40452879651890
H        -4.04461317821193      -1.89587490660369       0.54175982253000
H        -3.12431438257218      -3.37501288551988       1.03898818926602
H        -4.15361237880050      -3.39948998538335      -0.44323069414887
S        -6.33843479394966       1.61554415943221       2.89596741001538
O        -7.32514809654227       0.64363515831160       3.55962523959465
O        -5.69776906001582       2.33197523136402       4.09368117805827
O        -7.25756208910107       2.69039766156543       2.29750056616603
C        -5.16972103941508       0.85697627713821       1.73282971571111
F        -5.86897971559756       0.22298900546999       0.72390872674743
F        -4.38923708766719      -0.06493953066538       2.40267735633422
F        -4.35894062769894       1.83303003241432       1.18632835396131
