42
C10H18F6N2O4S2 optimized with ForceField in AMS.
N         0.42687793952518       0.23278484436410       0.03648169637967
C        -0.52199757699162       1.27231338272013      -0.47219598068728
C        -0.08850618284341      -1.13284053943179      -0.28490382864602
C        -1.97647508323331       1.08241552400019      -0.00409185712241
C        -1.52816150318675      -1.37663462161999       0.20344721934588
C         1.72941290652004       0.46543787604572      -0.66918766130903
C        -2.47869325722592      -0.31690352506655      -0.34434873995446
C         0.62429582045724       0.39585417354802       1.50250988961265
C         2.88460521057644      -0.46989305514821      -0.26920570414313
H        -0.53723257990597       1.26492187332458      -1.58744103643067
H        -0.18665727150176       2.28996785707521      -0.16734466127781
H         0.54979470587251      -1.91664187517606       0.17681357215187
H        -0.06794198320823      -1.30134297169879      -1.38634982511239
H        -2.61943358463392       1.82873341704653      -0.51878202263560
H        -2.07657855351931       1.27482928614364       1.08383540585558
H        -1.56875603050710      -1.38956218945956       1.31309246162016
H        -1.86453979339391      -2.37650978805904      -0.14621103189133
H         1.59433637598512       0.36363863159101      -1.77051757253932
H         2.07808998876014       1.50967760289799      -0.49437430124014
H        -3.49019817612157      -0.46378395051344       0.09243128017396
H        -2.56091672932912      -0.42506115457605      -1.44828241720292
H        -0.32950701502812       0.37033054818836       2.06293391325301
H         1.24181545997919      -0.42541765057023       1.92344882574536
H         1.11804518889072       1.36567787478337       1.73360960323181
H         3.77102499627176      -0.20920383800910      -0.88223345074749
H         3.17308299679118      -0.33791554125354       0.79313445123063
H         2.64871413411906      -1.53255552622174      -0.47469153883909
N         9.86139105975265       0.50272789905882      -1.92572111892892
S         8.30571173365949       0.84244272092126      -1.53891910851477
S        10.31074041727308      -0.05120562999799      -3.40135319271001
C         7.55933100455088      -0.59770669180528      -0.80556944342732
C        10.93893680221136       1.30757050821249      -4.36468196911949
O         8.28116075425379       1.96320745602501      -0.53879641662676
O         7.52828793957745       1.24316226767490      -2.76235101671298
O         9.14589461694074      -0.67787836569723      -4.11694220472632
O        11.40267905818240      -1.06901074366502      -3.23200411429877
F         6.26093368830972      -0.30626734959440      -0.43969782634532
F         8.27560613783795      -0.96936678499498       0.31595262941034
F         7.55710553056599      -1.63876199255574      -1.71416763834067
F        11.30655669609359       0.85462409850855      -5.61735678080858
F        12.04104674262772       1.85107827614889      -3.73237624264665
F         9.96252193824462       2.27655161093594      -4.49589885862526
