67
C19H28F18NP optimized with DFTB in AMS.
N         0.42351479843632       0.59852213181476      -0.50186410258609
C         0.47231165788641       1.87598047603921      -1.29650710670352
C        -0.53876893868688      -0.34027426649819      -1.16827370352965
C         1.80955146613793       0.00692709583631      -0.56955371526008
C         0.00227551952265       0.83409873598116       0.92117973608760
C        -0.88841285408405       2.52884722547259      -1.47402741981993
C        -1.92737062915478       0.25908870688305      -1.36745175589754
C        -1.85798266468631       1.56643808992486      -2.15578664837286
C         2.04772055855904      -1.25977248165989       0.24573285964007
C         0.93110737762829       1.73450252856718       1.72155936886582
C         3.44348314026011      -1.81321655068908      -0.08594532881765
C         4.57352031847070      -0.86653455207951       0.33318722803105
C         5.94648889805887      -1.46717723767446       0.01594786042812
C         7.06134115525991      -0.47888693850227       0.35213885818257
H         0.88582101100082       1.61760581658582      -2.27311560716798
H         1.16660131820997       2.55338547171875      -0.80185597459086
H        -0.60143386896854      -1.24392338062590      -0.55877003795044
H        -0.10412062163425      -0.59706520210847      -2.13805904535209
H         2.49031218664101       0.79069652008815      -0.24456301781712
H         2.00598661727304      -0.19195953749600      -1.62509168148322
H        -0.99557856529142       1.27499340277303       0.89719550131361
H        -0.07151595486542      -0.14784907568820       1.39470433006271
H        -0.73708699462752       3.41198420901305      -2.09974241768887
H        -1.29383318007671       2.86433184633968      -0.51558227407593
H        -2.41689750054920       0.42442406955790      -0.40376565236777
H        -2.52100703661208      -0.47637637181115      -1.91696611021766
H        -2.85276605347332       2.01374620692962      -2.21323130796233
H        -1.51544421013021       1.36186657378402      -3.17479796446116
H         1.98786761442976      -1.04902969876262       1.31711140145734
H         1.30165559003979      -2.02268325823252       0.00609957040482
H         1.93493151660431       1.32345732795440       1.79670033033242
H         0.99253232319816       2.73267223364000       1.29372578796195
H         0.51879991103873       1.81776874073450       2.72707025594148
H         3.50654780316747      -2.00404182470750      -1.16233457733199
H         3.55939843485792      -2.77162316606374       0.43018592256665
H         4.49733406714625      -0.65769195712369       1.40603887545860
H         4.48152911867782       0.08233458410783      -0.20095066378212
H         6.08503159220984      -2.39404122817213       0.58368055377362
H         5.99135486008671      -1.71500929391753      -1.04956769482945
H         7.04546986925688      -0.22983811273012       1.41424096312687
H         8.03143529210372      -0.91340427052362       0.11037929124750
H         6.93701814368428       0.43940366600293      -0.22213929874049
P         4.35967113690216       2.98718606662977      -2.26703354329033
F         5.33369495824019       2.09476638718376      -1.22534268718221
F         3.17120381555873       1.74893447642556      -2.15713608976784
F         5.46981867808642       4.22854867255597      -2.40187183822674
C         3.69419836650710       3.76995613052552      -0.57540735076916
C         5.29892539610298       2.03214498673011      -3.70118080327782
C         3.02894251719357       3.89689144659365      -3.46437222834467
C         4.68079180803978       4.61564803744835       0.27698631941887
C         4.82140251362283       0.59183367353313      -4.02929032915397
C         3.25916062409959       5.36837221729464      -3.88743574224858
F         3.30849124033558       2.74000289581358       0.22778475752541
F         2.59784492682793       4.54318959899797      -0.71293942494872
F         6.58789521511313       1.91928274365355      -3.34100637845391
F         5.28405984366504       2.73701923391738      -4.84469825607150
F         1.80086254829667       3.85581662957185      -2.88057166370510
F         2.90038116934923       3.16968288702878      -4.59005460047116
F         4.13115207778323       4.84041120957882       1.47902161552470
F         4.90885380386029       5.79382126398482      -0.28830721438034
F         5.84007536848533       4.00438065632860       0.47495605248765
F         5.60640519304400       0.02984929191899      -4.94686118467885
F         4.85987242850689      -0.17992728539169      -2.93783114831289
F         3.57288834266976       0.56863405034613      -4.49537916223421
F         2.20337959412817       5.83812333817600      -4.55767311770720
F         4.32621263880646       5.48216514548504      -4.66650526740687
F         3.43355962416888       6.13647160838751      -2.81321684140062
