41
C11H24BF4N optimized with ForceField in AMS.
N        -0.55598176527168       0.09683189613929      -0.09779966826756
C        -1.55293883097110       0.54350520051900      -1.12528595020579
C        -0.90061624044452      -1.29805305290702       0.33454851761025
C         0.78197033907804       0.07179157241991      -0.78544452244558
C        -0.54411582770450       1.00484454377930       1.10238814252474
C        -3.01635392307706       0.45317806870681      -0.66222840563435
C        -2.35772731275645      -1.46950698729401       0.81255831782951
C        -3.35330875749885      -0.97068430377734      -0.23109906896397
C         1.99525982746225      -0.29871751227418       0.10455014675474
C        -0.12997329146960       2.46331310126648       0.83380805829348
C         3.28249485451297      -0.34042957187182      -0.72989421787019
C         4.48526847748134      -0.73080580931992       0.12487126241701
H        -1.46773681393882      -0.08819486064103      -2.04070781396673
H        -1.34994100918109       1.57918306550332      -1.46903185105884
H        -0.24945031480355      -1.62885807148912       1.17177005323436
H        -0.73742280985970      -2.01701737754190      -0.50071870471717
H         0.99170198456065       1.05452560952025      -1.26391714195818
H         0.75773474953508      -0.65452313940182      -1.63149245527813
H        -1.53926282362715       1.04521933183372       1.58693794613649
H         0.12665027162968       0.60046655069820       1.89089822889986
H        -3.67753088855487       0.73554398365357      -1.51027721106176
H        -3.22395807951490       1.16978596842629       0.15880504528946
H        -2.52212023647070      -0.94612076314976       1.77725214681811
H        -2.54749638054723      -2.54918318979614       0.99913463997667
H        -4.37981455579412      -0.99522779721775       0.19426676084162
H        -3.33190446174619      -1.64357194014845      -1.11692304851330
H         1.84948050927691      -1.29808942821323       0.56312465352926
H         2.13347108151318       0.45285369075007       0.90940657717607
H        -0.13801554270177       3.01747560437421       1.79602123623003
H         0.89701616597462       2.53676867558021       0.42433179345977
H        -0.84674451667682       2.97497519107983       0.16111912350995
H         3.47011751625865       0.65913312755230      -1.18050796538389
H         3.17406301978791      -1.08141193373563      -1.55229278214274
H         4.32893236430137      -1.73093923908787       0.58218088979380
H         4.65060061496145       0.01997198512980       0.92680889994538
H         5.39130743502201      -0.77607279364522      -0.51368660145219
B         8.50607510150537      -0.15005807035805      -0.48887910793454
F         8.18298519483947      -1.52569592924178      -0.34389243513894
F         9.79262024179289      -0.02541889721406      -1.07704586203636
F         8.50575924030161       0.47288305882107       0.78745015214635
F         7.54369027021519       0.47886341467247      -1.32267472318673
