38
C10H22BF4N optimized with DFTB in AMS.
N        -0.22536252491218      -0.01527726192081      -0.22369011724313
C        -1.24294482317995       0.33983597919627      -1.27468696036145
C        -0.66452130544369      -1.26542857354643       0.47662294936612
C         1.06639651074501      -0.29461058805979      -0.95043848611034
C        -2.66109499699600       0.45226462884620      -0.73972746618930
C        -2.07383087406843      -1.17410951589614       1.05305753654237
C        -0.06101994389631       1.10058056480335       0.77088637557133
C        -3.08735048052244      -0.83489775284160      -0.03860751724904
C         2.24351176300554      -0.68614312780006      -0.06288210368898
C         0.58307592256825       2.36079037921232       0.21060177260128
C         3.48245949047659      -0.85544508292610      -0.94390473293001
H        -1.19065612907236      -0.43669982042402      -2.04041704823506
H        -0.93596731292021       1.27889767947883      -1.73112116725977
H         0.05201373993474      -1.47518198371918       1.27323307509032
H        -0.61925783936914      -2.07030758928804      -0.26214776403085
H         1.30218914282216       0.60141430986385      -1.52645996894661
H         0.85498816026630      -1.09400618888968      -1.66361612628118
H        -3.30770599892208       0.64294799367529      -1.59978998418353
H        -2.75983928803362       1.30129631078939      -0.05714758631901
H        -2.11370326413859      -0.42738701687197       1.85096772006024
H        -2.30830054393227      -2.14590337484509       1.49570886461658
H        -1.05501386265475       1.33936386629164       1.15306861569693
H         0.53481409301358       0.70940281348634       1.59981259209310
H        -4.07914055906427      -0.71436943411843       0.40330334121799
H        -3.13249335586252      -1.65350010259109      -0.76368766800348
H         2.44227538114997       0.08323249617587       0.68799148189085
H         2.04392068947062      -1.62659974610338       0.45952391837599
H         0.49624791266629       3.14023339983571       0.96776355275695
H         1.63820678643875       2.21090108774168      -0.00745268676364
H         0.09199715090817       2.70164370988185      -0.69789393035786
H         4.33810813988239      -1.13299511715120      -0.32908640704801
H         3.31737011873580      -1.63517956580825      -1.68745626909262
H         3.70988225970314       0.07598242814265      -1.46203978494059
B         0.16037259164735       1.36797341532710      -3.86524926977615
F         0.38624598803828      -0.01325565010770      -3.60545168852391
F         0.73897798423737       1.76034244554620      -5.03570721048010
F         0.73080306970420       2.07568967636079      -2.75218737219019
F        -1.22098519592570       1.59095965555365      -3.83464974927523
