53
C17H32N2O2 optimized with DFTB in AMS.
N         2.94735818930778       0.73745232841078      -1.37245408807974
N         2.59420231292970      -1.39933636156624      -1.29727790423406
C         1.68062535480209       2.81280768731841      -1.06186601494134
C         3.04668349349028       2.12585298634715      -0.95473325638298
C         1.35967634828841      -2.90911212094818       0.18907544432392
C         2.55009265839544      -2.75070934305345      -0.76068381364994
C         0.63058359029446       2.12136496395650      -0.18641779657644
C         0.03763159694951      -2.54743485276497      -0.49580631141465
C        -0.72858459904088       2.82102119017894      -0.27130083428448
C        -1.12697634362809      -2.54828498590683       0.49822627607685
C         2.87215732532768      -0.31539438092101      -0.52754022295083
C         2.95630729508965       0.27553895801658      -2.68009702416134
C         2.75394916534423      -1.05585390939166      -2.63281438279078
C        -1.77630223801051       2.08394401826910       0.56902580984689
C        -2.43807647359363      -2.14849009954139      -0.18589404432010
C        -3.14210467277043       2.76315363054067       0.48777666992793
C        -3.59391956171880      -2.09021206078854       0.81129240077456
H         1.79690510159711       3.85424863259082      -0.74785533186366
H         1.35050163937064       2.80822095318082      -2.10595489670643
H         1.50733770307683      -2.26737892783625       1.06279609609318
H         1.33021623400184      -3.94570544077442       0.53682355855310
H         3.77512878162813       2.63419325744906      -1.59315634049471
H         3.40264038305196       2.13412873671564       0.07939345362047
H         3.48872428099539      -2.93717243779609      -0.22678046321926
H         2.46835544601793      -3.44526507134462      -1.60096441681284
H         0.97388803440841       2.11031167641892       0.85325472363080
H         0.51723430507286       1.08153454525182      -0.51244888936583
H        -0.16379986958428      -3.25882776490704      -1.30413775637165
H         0.12680819318785      -1.55140851800080      -0.94375188230982
H        -0.63357558901997       3.85307931636033       0.08286444451651
H        -1.05692961644084       2.85528425784190      -1.31611325309121
H        -0.91041105464727      -1.84380583735238       1.30879713544322
H        -1.23234881996448      -3.54457241506714       0.94088899097633
H         2.51652179898592      -0.20496017798185       0.48616359787727
H         3.09598788812972       0.94129789902606      -3.51348191526204
H         2.67621704326261      -1.78970505644352      -3.41556780142821
H        -1.86363190296131       1.05130061735170       0.21325042483962
H        -1.44752477650016       2.04941552959465       1.61310003013992
H        -2.67258718797038      -2.87017642601811      -0.97576377370520
H        -2.31626589340098      -1.16665270589824      -0.65677984554757
H        -3.08313619201446       3.78651138930552       0.86097338104811
H        -3.49498101194180       2.79024544638622      -0.54426363261879
H        -3.86854783809542       2.21545042380062       1.08874291514627
H        -4.51386214289523      -1.80250575959639       0.30176164776693
H        -3.38660404700610      -1.35820037603545       1.59319158994545
H        -3.74529728360752      -3.06400157440107       1.27909761964600
C         6.34967532772329      -0.26538027665130       1.69304936541350
C         4.95857745453039       0.01336268329295       1.11039585530199
O         4.24111986395013       0.85526072813244       1.63963578264714
O         4.66478346671414      -0.68741269820255       0.08411750972294
H         6.92363684221367       0.65966368037662       1.68245348463697
H         6.23608144440120      -0.59011400980994       2.72600835749574
H         6.86485950227330      -1.03008436371480       1.11674738557219
