43
C13H24F3NO2 optimized with DFTB in AMS.
N        -0.97496801898086      -0.38847662375162       0.42676789947431
C        -1.42614603102746      -1.39619154032863      -0.60977062744390
C        -1.88922164560637      -0.58717226749115       1.62217836877243
C         0.43689423093304      -0.65041406297339       0.85111131641457
C        -2.76283420259772      -1.92572542613962      -0.11092333537007
C        -2.56988185774568      -1.92686376751659       1.39934546363642
C        -1.13703579615610       0.99130968189040      -0.14379622247429
C         1.47015078547568      -0.50205956427642      -0.26482540949941
C        -0.82638609768268       2.11571078241175       0.84436174191040
C         2.83772420300250      -0.98734662136141       0.23233705483496
C        -1.58636911999517       3.37307952530894       0.42023571524090
C         3.90207867074140      -0.83556068748771      -0.85209108693332
H        -1.48527386404171      -0.91129981925001      -1.58346231445415
H        -0.68748491392122      -2.19948015220475      -0.65264082991044
H        -1.30815605281117      -0.53288502185702       2.54186254559766
H        -2.64152280080716       0.20509705185499       1.60450447153101
H         0.46005457309019      -1.66730072226191       1.25296353925739
H         0.66694615366376       0.04644133721178       1.66063769255234
H        -3.57055660563317      -1.24009076117662      -0.37844376835108
H        -2.97137109092427      -2.91501472229427      -0.51830830564718
H        -1.93298793746319      -2.75808786003746       1.71580973818791
H        -3.51614453477826      -1.96976805926045       1.93740040953067
H        -0.49652140946502       1.06422575278483      -1.02499796422643
H        -2.17881194261000       1.06310090214070      -0.46339767153195
H         1.17547952718342      -1.08500896543490      -1.14146399194939
H         1.55205178648894       0.54523946368325      -0.56678173386341
H        -1.14187512251960       1.83752110825257       1.85252891177046
H         0.24995539771391       2.31443784848538       0.87084685612584
H         3.12854095662980      -0.40821430105064       1.11481179671216
H         2.76468500546642      -2.03867067087701       0.52958466753863
H        -1.27940332223233       3.68822026284338      -0.57738649948165
H        -2.65764122991402       3.16888554023830       0.41053516821722
H        -1.38500568728187       4.18169341710712       1.12190330988664
H         4.86374973418659      -1.18562520231137      -0.47799555751137
H         3.63669230336047      -1.42113532946790      -1.73297690199315
H         4.00212294501330       0.20981956914300      -1.14592385374060
C        -5.25343983316700       1.06394254078413       0.45874166228488
O        -4.02983777155214       1.02363880154001       0.24786360078259
O        -6.15761540886313       1.72143578230619       0.00216925597591
C        -5.67072503023569      -0.03860125351119       1.59352753273278
F        -6.87947570631193       0.10448546323667       2.13757218198650
F        -4.77452075434843      -0.03836158708304       2.61931610956712
F        -5.61476821057615      -1.29763850351833       1.08072276426024
