57
C15H32F2N2O4S2 optimized with DFTB in AMS.
N        -0.83205183469833       1.23323402670954      -0.28478428747211
C        -1.42822773443312       2.09515480809440       0.78670107335892
C        -1.69900694111480       1.32253533795864      -1.51009904976350
C         0.51195914415354       1.80199215186808      -0.67254647309496
C        -0.70914320170592      -0.18075476294861       0.21390966994337
C        -2.87802136154298       1.74243090543866       1.10314069646185
C        -3.14483997524183       0.93060494830846      -1.24889857065829
C        -3.74856795221935       1.80496864428768      -0.15139653678314
C         1.58223600182697       1.76592522158481       0.41202071925161
C         0.00878382266239      -1.13603278565975      -0.73551218156756
C         2.90379651654704       2.24768386129519      -0.20314604454926
C        -0.01011511190790      -2.55296575589911      -0.15310817314745
C         4.03664563652296       2.21654622845552       0.82473535793230
C         0.71210814958797      -3.52286070296424      -1.09446960103679
C         5.34944816821412       2.69368358042263       0.20605714000277
C         0.71330406832874      -4.94353475873021      -0.53504609191459
H        -1.36625145436580       3.12763972291829       0.43202085048006
H        -0.81084035367014       1.99158622446853       1.68112772035562
H        -1.25203938017772       0.69682214806210      -2.28216715524397
H        -1.65341181208970       2.36035682450726      -1.84643392111316
H         0.33399195131303       2.83240020982567      -0.98696290851109
H         0.84964766900303       1.24211309766383      -1.54335768692382
H        -1.71935198374692      -0.54785808300139       0.40384023369390
H        -0.18425854064814      -0.13672923333974       1.17152303553994
H        -3.23596747977474       2.46646383364391       1.84005435803470
H        -2.94146521750769       0.75014809782336       1.55782693572841
H        -3.22593568329613      -0.12644989104055      -0.98207771713528
H        -3.69370391274798       1.07836136825290      -2.18234188882223
H        -3.81091702720949       2.84022394053074      -0.50136226263891
H        -4.75902012552526       1.46409058613599       0.08584043633149
H         1.30938146015786       2.41096173607895       1.25311473807726
H         1.71988374661221       0.75061331391978       0.79273377869422
H        -0.47943976601825      -1.14491166195351      -1.71126104721283
H         1.04499350333561      -0.82747295533642      -0.88046762446614
H         2.77664273553874       3.26510011152772      -0.58532450974599
H         3.15664344551526       1.60397145055033      -1.05062157826965
H         0.48097029296089      -2.55414957654881       0.82648568757659
H        -1.04622866561209      -2.87958424871254      -0.00879244978423
H         4.16054946188138       1.19475265518755       1.20024379979513
H         3.77904939724298       2.85641992437621       1.67644343052405
H         1.74298738153170      -3.18509301066907      -1.23887838830882
H         0.21790818788285      -3.51400555006493      -2.07091848681253
H         6.14857968839172       2.65336447091972       0.94652058465439
H         5.62385445313377       2.06059194875672      -0.63828257415816
H         5.25318505766634       3.72085730863302      -0.14765050586187
H         1.22693410555249      -5.61315009699776      -1.22468451647749
H         1.22562715398431      -4.97644833399382       0.42769337033208
H        -0.30771279198932      -5.30285260248156      -0.39745931990777
N         1.61831807604323       1.27468198120749      -4.96177002909111
S         1.19392433458900       2.62759997591281      -4.24868820248334
S         1.56125933207489      -0.04111225606950      -4.08945893308842
F         2.33387261717980       2.86785990913205      -3.10206852945497
F        -0.04957125588391      -0.25866502577112      -3.77852280323619
O         1.37154586098957       3.69861825673650      -5.16474165321040
O        -0.01926867867721       2.58058313747323      -3.47335070278705
O         2.11409809873964       0.03768311893317      -2.76332961067760
O         1.90701127274067      -1.15266903751885      -4.90396551635799
