44
C12H24F3NO3S optimized with DFTB in AMS.
N        -0.93025556751712       0.32985855518551       0.45571042162240
C        -1.59968377910582      -0.20696323693019      -0.77457963286258
C        -1.94263201441817       0.07192671350009       1.53690091239154
C         0.31914800466537      -0.43422121707992       0.77674800760791
C        -2.32770042016903      -1.46593359154444      -0.32324193557446
C        -2.64743687105781      -1.22926867527333       1.15964068093297
C        -0.67490664065343       1.79928314810281       0.28358596722130
C         1.47187812622617      -0.23300845668347      -0.20558697758998
C        -0.11143574640378       2.47952757591763       1.52824083628758
C         2.61974684046646      -1.18497283491186       0.15374687716388
C        -0.09600175883315       3.99176504133057       1.30656690085975
C         3.79841278767141      -1.00884545373591      -0.80113601502371
H        -2.31640038652644       0.54887926905432      -1.10181087266753
H        -0.86311661821193      -0.37988270890255      -1.55797485478949
H        -1.44022499302198       0.02038566319890       2.50271873974526
H        -2.64132913328027       0.90863690712141       1.53856599401376
H         0.04362503578761      -1.49098817523232       0.81481524987712
H         0.63511987354092      -0.12880643021502       1.77717230691894
H        -3.23548943103663      -1.60101422400808      -0.91308593923913
H        -1.70156896869126      -2.35236301723297      -0.45184953426568
H        -2.29592191255919      -2.06280041639378       1.77150950695345
H        -3.72111277419860      -1.11601765131253       1.31809493834667
H        -0.00131512898077       1.91684322539750      -0.56830929636934
H        -1.63510125291781       2.25002147979026       0.02901722301680
H         1.14780762006433      -0.43145855112236      -1.23051434478456
H         1.83522546419293       0.79658833763562      -0.15849653380680
H        -0.74772075533712       2.25941012462060       2.38830183869380
H         0.90110171338301       2.12314854087438       1.74267913317550
H         2.94706333707517      -0.98681596015156       1.17964839851263
H         2.26294216802784      -2.21931940853538       0.10888911666806
H         0.49603569453391       4.24785485342697       0.42697051835622
H        -1.11435150119650       4.35402135613351       1.16833123092394
H         0.33607335821263       4.48446118627007       2.17657239670360
H         4.59372882689106      -1.70635475704377      -0.53969205450012
H         3.48992720273994      -1.20167279968134      -1.82925435704314
H         4.19126276738537       0.00658006166447      -0.73998613846304
S        -4.17072688771932       2.83465600823519       0.61556649168020
O        -3.78860542504776       1.86428336735084      -0.41048150213906
O        -4.74722751242718       4.05671853966991       0.12867922548374
O        -3.15151555511387       2.98423851280468       1.65046264255334
C        -5.52978145898205       1.94294576528491       1.50746892350189
F        -5.05081974158163       0.76182723565336       1.93901907519736
F        -6.56247162805112       1.69136258707342       0.71577099391357
F        -5.96050303092440       2.61312134309376       2.56604228479542
