38
C10H20F3NO3S optimized with DFTB in AMS.
N        -0.49854580302277      -0.31997226826048       0.06703161419487
C        -1.33432624932410       0.91709055481232      -0.13020689738688
C        -0.71871784710756      -1.27420169474641      -1.07423109853116
C         0.93728549422502       0.13076687991797       0.07339558355444
C        -2.81200983583620       0.62449042491195      -0.36151312741914
C        -2.18627992329104      -1.57380896668005      -1.34594443572768
C        -2.99777240674360      -0.30084782977274      -1.55963850083052
C        -0.82361570364556      -0.95103627182514       1.37556070152601
C         1.96330011464518      -0.97739123030142       0.30840785004414
C         3.37010111252185      -0.38131649711799       0.26418028518563
H        -0.91918409861853       1.44149053842933      -0.99652836941185
H        -1.19604364108613       1.53847285252323       0.75781359226387
H        -0.19397996140625      -2.19936494660287      -0.82952652831701
H        -0.25349624510943      -0.81968292187001      -1.95439326062407
H         1.02480919548230       0.88727357113637       0.85831695749819
H         1.12654577398614       0.60972270191693      -0.89132194049452
H        -3.30436111563295       1.58336273522064      -0.54363093540944
H        -3.26508157720143       0.17642127865155       0.52500137908847
H        -2.61670512750609      -2.15190906368644      -0.52928111548978
H        -2.22404263635467      -2.19518846545157      -2.24428079766491
H        -4.05334983085840      -0.56259496129764      -1.65574812600858
H        -2.67802793333046       0.20188117633150      -2.47924813487056
H        -0.29720550089101      -1.89732519405036       1.46126934209693
H        -0.51922176226292      -0.27653287393359       2.17361006459782
H        -1.89460091645979      -1.13563662305696       1.43718779210440
H         1.80384938007972      -1.44540705367124       1.28227100996493
H         1.87617116831197      -1.74857020485754      -0.46053958458552
H         3.56540172124615       0.07201757052713      -0.70812502756217
H         3.48860008273437       0.38025095143780       1.03544395056065
H         4.10420831813151      -1.16743665539411       0.43565898253007
S        -4.16682480389595      -2.99188712609493       1.50138451256423
O        -4.36291697005384      -3.35488891417191       0.11428639832816
O        -5.13585290512344      -3.48301133929489       2.43924021748182
O        -3.76901973352637      -1.59525395640833       1.68920807924566
C        -2.58101679055027      -3.87867166962793       1.94239300892601
F        -1.69345467209743      -3.74295803682761       0.92889467426539
F        -2.73178769906407      -5.17186354280337       2.16842398728185
F        -1.99935054036392      -3.32888513091121       3.01343218883027
