50
C14H15F18N2P optimized with ADF in AMS.
H         2.28268444974954      -1.06964197575047      -5.21638038937119
H         0.48850595304024      -1.07490828119254      -5.09895715993352
H         1.38105823271190      -2.62677887400825      -5.09078354714585
C         1.41101038683787      -1.57652161549883      -4.78346357834402
H         2.12296026048623      -2.54795508072878      -0.27844050055027
H         1.90232309111596      -3.59493695096284      -2.85505980654054
H         1.34566890837789       0.60149865484775      -2.99740510247177
N         1.51346197395730      -1.52629612404384      -3.32572991281845
C         1.47068402468765      -0.39884819518577      -2.60468787953495
N         1.70126761981462      -0.71148530911461      -1.32537983156482
C         1.89715491497040      -2.07156659141700      -1.22388400048672
C         1.78383649155584      -2.58500624851799      -2.48395415794346
C         1.68765263122604       0.25369599108124      -0.21842076013270
H         2.43076782909174      -0.09338226717387       0.51467799279819
H         2.05077061412463       1.20575730481628      -0.62999599770401
C         0.30143539599961       0.38973774333654       0.39899358954891
H        -0.03564647483575      -0.58912056552883       0.78531290882691
H        -0.41527269272309       0.68958254901599      -0.38673293508885
C         0.29817767599068       1.42563779157206       1.52180631721412
H         1.03477621969519       1.13163350608184       2.29099586534165
H         0.63890687655997       2.39450437214499       1.11644160879651
C        -1.07869436775709       1.58684571955720       2.16027268769701
H        -1.42584785410561       0.63814910880250       2.59954441124348
H        -1.82382183631913       1.90695162758392       1.41483635597201
H        -1.05747076445011       2.34189525543462       2.95993334478507
P         4.19412221744314       2.08748610369873      -3.65021894977473
F         3.63483449150109       0.60992502618194      -4.27522363800558
F         2.82037670006643       2.11782066802880      -2.63424991154757
F         5.52972696352667       2.08998479699619      -4.63001928740842
C         5.20600076693936       0.97334627358352      -2.34860710856309
C         3.16983535485659       2.89863747896039      -5.15517120345441
C         4.67579719098601       3.81017892705096      -2.76060029510657
C         5.61116826323417      -0.48235846063262      -2.76664238093236
C         1.61934323854211       3.00696810964763      -5.06519849269844
C         5.94467123355448       4.61940405234016      -3.17094991021499
F         4.51420776670998       0.79234064459924      -1.15690154680682
F         6.39772262071345       1.57309061503740      -2.03370960496806
F         3.39554202645311       2.13667840841777      -6.28540176274384
F         3.59842745253152       4.16588568762672      -5.46245653022070
F         4.80627243852547       3.58064918377654      -1.40404862150109
F         3.62066164851757       4.68729384222285      -2.89248482999942
F         6.50185225810903      -0.96957451072175      -1.85501643236194
F         6.19035282466377      -0.53834714194527      -3.97979616863165
F         4.54548958012313      -1.33502170861535      -2.75394221467209
F         1.04062045433033       1.77392727162359      -4.87194638295295
F         1.20726906038190       3.81771030494121      -4.07098143626824
F         1.11987722805717       3.49059822539023      -6.23133952302995
F         7.08210218444964       3.91749181782908      -2.98327362017994
F         6.01863839013954       5.73979561132807      -2.39429120663755
F         5.89276337134177       5.01459556178266      -4.46093120381236
