39
C9H16F6N2O4S2 optimized with ADF in AMS.
N         1.27037570638703       0.17314452279547       0.03054719098904
C         0.51560099212714       1.34096959440403      -0.59295126325039
C         0.45218535693513      -1.09295804372215      -0.10390070809910
C        -0.88424230324277       1.49736689490707      -0.02875861878577
C        -0.95267684877675      -0.96099526584131       0.46001810535400
C        -1.69525509737523       0.21193786248089      -0.17873793087441
C         1.59770930746711       0.46037436283066       1.46619962296737
C         2.56186252565166       0.00158079792801      -0.71322711621512
H         0.47877699206227       1.12049226348211      -1.67139510889572
H         1.14607788489667       2.22724461665542      -0.43833970370103
H         1.02716622619393      -1.89279444846568       0.38707327378123
H         0.41379765051586      -1.30535418837498      -1.18436601144127
H        -1.35889861889296       2.32826633830648      -0.57608324138278
H        -0.84240022425887       1.81193934577037       1.02780221241876
H        -0.91914371781708      -0.84672940654073       1.55680472235282
H        -1.47515908595799      -1.91214732359931       0.26345761852208
H        -2.69215780918460       0.32577486387556       0.27528512382769
H        -1.85134241146497       0.00212565430829      -1.25312516236990
H         0.67492191562830       0.57116767626025       2.04288977524263
H         2.18647289925403      -0.38057922732131       1.85428244075816
H         2.18860676251774       1.38557121528891       1.49221697758324
H         2.33765451476669      -0.17583763068752      -1.77256595962075
H         3.15836515151753       0.91430240983514      -0.60833525799170
H         3.09965726932156      -0.85551057770076      -0.28760259824011
N         4.90647046386572       4.04263210597561      -1.13471629846996
S         4.21998781743692       3.84946747196868       0.29869331342980
S         5.07007034143779       2.85469626212173      -2.20714127127770
C         5.43639663985039       2.79722347436228       1.34487062797861
C         3.52764801435704       3.01300044318783      -3.30090971976285
O         4.19068958215547       5.13900068476817       0.96580919701596
O         2.99685596591110       3.02017450288471       0.32683495246348
O         4.95831382987445       1.50169949763742      -1.65146379710908
O         6.15199342645554       3.18120889747839      -3.11687521077072
F         5.40020330884084       3.22879505408783       2.62849000903183
F         6.69892992560364       2.89241600477553       0.88759350136258
F         5.07360650578439       1.48319192143658       1.34443581704507
F         3.43658936563968       1.91918668275064      -4.10768857669455
F         3.58061437352399       4.11369993278598      -4.07467909925124
F         2.38150650319158       3.06653421610371      -2.56222885172018
