53
C15H30F3NO3S optimized with ADF in AMS.
N        -0.35814136428827       0.71603914926876       0.09286818216162
C         0.35712219680438       1.60400502746661       1.12329145470495
C        -0.54942732159955       1.61476016300764      -1.11924164013815
C         0.52308383361669      -0.46653342840965      -0.32592146571465
C        -1.70281807713474       0.23113938718383       0.63137952096646
C         0.61547972390112       2.94753878643030       0.43883925761699
C         0.60142143647827       2.59952341075019      -1.05103186779613
C         1.12752235672956      -1.28805058353396       0.79457744642095
C        -2.64618862935864      -0.31270571333893      -0.42271611146925
C         1.97746228423456      -2.40934070215525       0.18762118824868
C        -3.95617288168469      -0.75459935255584       0.23556082952105
C         2.61312010891328      -3.28363410587178       1.26562438615189
C        -4.96171255083090      -1.25542951579985      -0.79843908356306
C         3.31846525632996      -4.49836830607017       0.67044504853877
C        -6.23596210863268      -1.79527277830635      -0.15481303800461
H         1.29104998899347       1.10304831861261       1.39303875559247
H        -0.27255069834034       1.66636053101520       2.01877256402791
H        -1.50748919375393       2.13906875945384      -0.98434682080681
H        -0.60224319457931       0.98890530924145      -2.01846159775322
H         1.31551415737202      -0.03456441926447      -0.95714490529401
H        -0.11809928123287      -1.11730756532748      -0.94111975917000
H        -2.14464408363399       1.10568005720752       1.13774020437088
H        -1.48619770462377      -0.55415617997893       1.37257660534874
H         1.56318933979941       3.39255501374140       0.77585320110239
H        -0.19165080694136       3.66371742224665       0.66216900057048
H         0.43137073233439       3.46923558247612      -1.70247147634533
H         1.54845365319089       2.12712076271318      -1.35889774345315
H         0.33614102955230      -1.74043310609191       1.41448947608702
H         1.77404853609261      -0.68078134424164       1.45193004827634
H        -2.20450695512273      -1.19929076925357      -0.90804140603885
H        -2.86898618334952       0.44847402017825      -1.19070759028250
H         2.76555929168364      -1.97604574538514      -0.45890446328175
H         1.33312910204263      -3.03908386676307      -0.44855685262451
H        -4.39864804906171       0.08255158142643       0.80998343369999
H        -3.72573056112745      -1.56396237736902       0.94814435579430
H         1.81301252648373      -3.62937265125858       1.94142820141661
H         3.32119428732012      -2.68010366524093       1.86439340131782
H        -4.48234006836444      -2.05089006702871      -1.39479972469093
H        -5.21043437483969      -0.43555647761268      -1.49834356785275
H         3.79139098996538      -5.10984500031246       1.45413345173064
H         2.58648755759906      -5.12901017238131       0.14278749300027
H         4.10109018724760      -4.19820958191802      -0.04605388766154
H        -6.94957246588252      -2.14906064283643      -0.91501311913982
H        -6.00181111878519      -2.64133639414882       0.50900285602321
H        -6.73600098050482      -1.01938221219686       0.44754807796534
S        -1.41450615951765      -3.83290073629248       0.46219903146919
O        -1.33124663466078      -3.19869840859837      -0.87614971206694
O        -1.82160604906377      -2.90213577076392       1.54161645226839
O        -0.31316362124317      -4.74349938002691       0.79579293987498
C        -2.88933664285739      -4.98446011716987       0.30029287816568
F        -2.69614394872741      -5.88216356218611      -0.70052116478076
F        -4.03342685219363      -4.29354434369803       0.01942085718334
F        -3.10002036844816      -5.67549213903250       1.45050384591138
