58
C16H22F18NP optimized with DFTB in AMS.
N         0.78423530294893       0.65118599905144      -0.51289117147672
C         0.34821316962308       1.11353511424388      -1.87680447794205
C         0.02562628623823      -0.58199047023942      -0.13198854968430
C         2.25999970976992       0.33203856446074      -0.60294670968664
C        -1.15506201680467       1.30350971390004      -2.00622301068019
C        -1.48636492856217      -0.40642731992052      -0.22585549838143
C        -1.90126723087906       0.02669753922784      -1.63061404847758
C         0.57960026081065       1.74374035856703       0.47589165811782
C         2.86224478475564      -0.29577874658392       0.65084105532705
C         4.38966727762338      -0.35052020671701       0.50209309601967
C         5.03232905335418      -1.06551720294068       1.68713094784576
H         0.69543689139058       0.36733787617323      -2.59417188430682
H         0.86142490195019       2.05221092971603      -2.07462730910350
H         0.30916803306453      -0.84589234391036       0.88852278298623
H         0.35360666615592      -1.37504863484044      -0.80974153966279
H         2.76636707265275       1.26935404178580      -0.83308218499813
H         2.38859295303736      -0.34010264561607      -1.45417211469154
H        -1.35170871469113       1.56289947644176      -3.04935281906621
H        -1.49707826401195       2.13729286366735      -1.38728345724333
H        -1.83117099744693       0.32414854919561       0.51121039277494
H        -1.94224220149071      -1.36875325920444       0.02135890746302
H        -2.97918937903329       0.20009334721267      -1.65971874419979
H        -1.66231154823832      -0.76659242858624      -2.34583391230212
H        -0.46200718129219       2.05284847468054       0.47214372914613
H         0.84816958463737       1.38907026126429       1.46808977156758
H         1.21164878721900       2.58391590750613       0.19633882660315
H         2.47786965350206      -1.31049315307035       0.79299275300694
H         2.61302660453804       0.28940823450821       1.54013872294146
H         4.78012177827739       0.66813231585817       0.43262145887328
H         4.64581311485767      -0.87068040753401      -0.42573833178819
H         4.68018870731978      -2.09593113562254       1.75399981485262
H         4.79305052028277      -0.55387702468993       2.62041483709237
H         6.11500719237295      -1.07556923882537       1.56467608980022
P         3.78280303610319       2.90432421256016      -3.76176994654038
F         4.53347989314769       1.77632906813573      -4.72242114099535
F         4.72869624448270       4.15984620087763      -4.29199362758824
F         2.74000786948681       1.66526696680061      -3.15950691289586
C         2.59014090838075       3.15034942254728      -5.29657144172412
C         5.19513254981846       2.37407610140872      -2.45197013013555
C         2.83834807730962       4.15861616546357      -2.45333876112243
C         1.55292932736914       2.03707264329239      -5.60357331161563
C         5.64884707797397       3.08450950691950      -1.14431495220379
C         1.51456700573266       4.95852314478765      -2.59200361071734
F         3.34454066148902       3.28396468896897      -6.39579655839054
F         1.88441037920381       4.29150572615757      -5.16603359185963
F         6.32400732074741       2.30358662313290      -3.17529202900994
F         4.90106075253168       1.11062999739027      -2.05177358313821
F         3.75318233434585       5.04613316436996      -2.03294897732059
F         2.56180486152039       3.35544959737166      -1.37005277991601
F         0.92655150058269       2.27887685578533      -6.75305372602206
F         0.61142128886362       1.98554611178865      -4.64386059360442
F         2.10857795597067       0.83479753385643      -5.68367511230534
F         6.67520981516537       2.39317734004210      -0.63425017446475
F         6.06016246638920       4.32546077219222      -1.34623820641433
F         4.69623405632846       3.09101101217856      -0.20530609670800
F         1.60001270336780       5.99971632142416      -3.39821496897937
F         1.15232376748147       5.40954046319995      -1.38291968187634
F         0.52174302707572       4.15687623388862      -3.00641136267874
