46
C14H26F3NO2 optimized with DFTB in AMS.
N        -0.42535186749438       0.12508762147733      -0.00878780632671
C         0.12216058244809       1.51101376314967      -0.18137315847086
C        -1.35535198459748       0.08788672520183       1.17038759548024
C         0.69563638811146      -0.84239050434136       0.29504575690389
C        -0.95245261976491       2.58619659343446      -0.24779694636096
C        -2.46469421839582       1.12832030659759       1.09086962645765
C        -1.86374572795677       2.52780881126177       0.97460082140191
C        -1.12543819311284      -0.32040127867569      -1.24092890571212
C         1.92875000351347      -0.69932035760614      -0.59198840738084
C         2.89489572936496      -1.85051839652996      -0.28525991793035
C         4.23712895819083      -1.70281008841563      -1.01286411867247
C         5.10813874537566      -0.54954132543144      -0.47895380040255
C         5.04872584448005       0.70853616093990      -1.34469357524537
H         0.71478922856154       1.52101118282653      -1.09666299659253
H         0.78501352999093       1.70540014397439       0.66925484917061
H        -0.74496999456880       0.28037715534872       2.05516889171088
H        -1.76430527735910      -0.92369755640654       1.23045953558566
H         0.99155732725013      -0.66993616581873       1.33053652408582
H         0.26927770961661      -1.84661365989906       0.21544219736342
H        -0.43079640007437       3.54629154916058      -0.27424561945788
H        -1.54429879696115       2.49849886341951      -1.16465786716738
H        -3.13243007137564       0.92712386052079       0.24786767816973
H        -3.05265592517763       1.04685516841247       2.00874910646750
H        -1.28488291414173       2.75417865133587       1.87474370656960
H        -2.66125723536302       3.26845176469434       0.88233764601203
H        -0.41199807924908      -0.34463057338420      -2.06181143458254
H        -1.53554241028410      -1.31563327404127      -1.07749336830357
H        -1.92809026676108       0.37232689412473      -1.47990510727091
H         1.66314556665231      -0.71413247506719      -1.65309562222995
H         2.41981258916188       0.24836401962318      -0.36627355343602
H         3.07222186502644      -1.88915365679066       0.79350914613101
H         2.42925912895663      -2.79675416519183      -0.58290991118005
H         4.05998898925831      -1.57743891675469      -2.08691996969714
H         4.77971989778914      -2.64437205806464      -0.88158837481755
H         6.14813401397309      -0.88941986560221      -0.44050278709689
H         4.80858541389116      -0.30093816749837       0.54324191365832
H         5.36840679216616       0.48769690959574      -2.36462687228025
H         4.04057017233297       1.12152140700119      -1.38074346169006
H         5.71177007323250       1.46793025187556      -0.92988350401461
C         2.88564002194899       2.61021284601415       2.31875645626742
O         3.71848644031960       3.18690247570194       2.97122699882723
O         2.24620714468682       2.83846130635357       1.29655355370465
C         2.47896837184068       1.09658677519987       2.91807122160294
F         1.11623290053959       0.89654770239362       2.86869223819471
F         2.84735458642746       0.79935903264132       4.16408373858986
F         2.98423788423050       0.11112050043904       2.11838936916447
