40
C10H15F6N3O4S2 optimized with ADF in AMS.
H         0.87508272645597       0.98596415800457      -4.99589347492744
H        -0.81366218931396       1.02343478168506      -4.43397520818339
H        -0.14137703341320      -0.50531338723993      -5.10189093524986
C         0.07944833235023       0.39779552089355      -4.52216336284906
H         1.98350839589942      -1.83436806092337      -0.90623253920296
H         1.32309224794719      -1.96078995644065      -3.61432783575567
H         0.08286515166150       1.77914106847498      -2.07574255709646
N         0.51547889395671      -0.00750565603534      -3.18558819909803
C         0.45467396565766       0.76143784251513      -2.08836414615130
N         1.02975773949620       0.09129001575985      -1.08051636830818
C         1.48022816797913      -1.12466696267508      -1.55047580424211
C         1.15854553202502      -1.18683106323177      -2.87562881347177
C         1.25687955555276       0.60848534725537       0.28287757614571
H         1.50481432027963      -0.26596930908411       0.90306160926113
H         2.12820538765240       1.27828359841819       0.22571009916604
C         0.05446317526155       1.35146414804575       0.84141600556189
H        -0.82908929176239       0.68796263209366       0.84010300070240
H        -0.16766943239301       2.21670936519538       0.19956630664083
C         0.33825383883335       1.85834637893833       2.25553341823080
H         0.57345314004168       1.00522174656916       2.91803953152518
H         1.23651645860568       2.49983908049988       2.22785753659649
C        -0.83745601899718       2.64874871847343       2.82421870961967
H        -1.74680112567282       2.02892676445832       2.86981106591814
H        -1.05611353817833       3.52564768548136       2.19534296760289
H        -0.62049077153604       3.00698303809134       3.84175702199771
N         1.60400059528802       5.08683077302159      -2.83555478888553
S         0.15308832441493       4.63546296009178      -3.34625637884862
S         2.55358019618885       4.08648054897631      -2.01802226815142
C        -1.00334779905180       4.82160515539048      -1.81402068603966
C         3.41482687934395       3.01013112989434      -3.36642086467499
O        -0.34046140093619       5.62618364853097      -4.28422706672341
O         0.03045055409599       3.20552928879948      -3.68125500711334
O         1.84304952114641       3.10542410281826      -1.18229293900910
O         3.64669036244208       4.84651814518910      -1.44025085061300
F        -2.11201960084351       5.50831032792614      -2.15569108439082
F        -0.39516203710418       5.45518786943764      -0.79094671282736
F        -1.40212029369462       3.59023203750708      -1.36717669883121
F         2.94377877053544       1.72502465613886      -3.34395228384264
F         4.74222833041755       2.95883390024223      -3.12671674922450
F         3.21539553136793       3.49994267431267      -4.60668545035705
