67
C19H28F18NP optimized with ForceField in AMS.
N        -0.66382075604433       0.52138224423120      -0.22003682100914
C        -1.62498267040054       0.25700489719397      -1.33986864920353
C        -1.23206038792222       1.59991133965758       0.65450348998571
C         0.59927113159440       1.03414667169602      -0.85554392297643
C        -0.41006114850977      -0.71195084992534       0.60533943873059
C        -3.04539834956052      -0.10207519820401      -0.87625695123144
C        -2.65994837634681       1.31086081656850       1.16291028956701
C        -3.61154477862806       1.00287624458021       0.01007117782898
C         1.78428327257393       1.29180654094515       0.10765969736216
C         0.25699183761516      -1.89374538501142      -0.14011947484965
C         2.99077177319783       1.84867946230735      -0.65943310339725
C         0.49859922061435      -3.06861701180735       0.81661912016389
C         4.17686098798350       2.08861615838310       0.27054624261115
C         1.14370210480955      -4.24762566035227       0.09336534060627
H        -1.25690708749279      -0.54175471722350      -2.01645948183760
H        -1.71759531979909       1.16214336877351      -1.98534627619491
H        -1.26462396254886       2.57030960638418       0.10721660305811
H        -0.59750516693350       1.76222649085276       1.55226908427043
H         0.39158926240607       1.99022345231636      -1.39049964854104
H         0.94449237033416       0.33681786289020      -1.65134569135400
H        -1.35186663470647      -1.09903288440568       1.04019313442425
H         0.21205131570256      -0.45823730775725       1.49158684727283
H        -3.06457339506969      -1.07651220225728      -0.34649183908148
H        -3.69266265622166      -0.21283803140230      -1.77199273217260
H        -3.03520249680549       2.20567859996267       1.70539797845663
H        -2.66042598020455       0.47476483840681       1.89280876293762
H        -3.76937815206907       1.92224641989970      -0.59649469785075
H        -4.59692134678774       0.68652322449397       0.41562472376704
H         2.09872632831030       0.34907191558022       0.60030538661039
H         1.50009795142963       2.02726340751196       0.88733452312229
H         1.23532930096710      -1.59193223421011      -0.56551482460547
H        -0.39778512743011      -2.25113929496505      -0.96048278948740
H         2.71609761753589       2.81057633116410      -1.14490856410690
H         3.29648921197356       1.13009619841346      -1.45117170899360
H        -0.46813826301348      -3.40225188816185       1.25335789669515
H         1.16667861409721      -2.74694316082689       1.64519161442492
H         4.49179513688607       1.13592889034002       0.74774536539597
H         3.90666350724656       2.82236637342561       1.05990317152151
H         5.03092817256165       2.49241658952515      -0.31278030473993
H         2.12699719023321      -3.94980416994815      -0.32945281482567
H         0.48505118924462      -4.60441347878158      -0.72709931775978
H         1.30193061949230      -5.08150334135830       0.80922077249102
P        -7.90009416536758      -1.14588093621735      -4.47608021786804
F        -9.07699384558342      -2.30580591720933      -3.98821362572384
F        -6.33253128294435      -1.54852831769598      -3.88093574353307
F        -9.27158011472640      -0.74970225513620      -5.43736017594220
C        -7.38736713547036      -2.65411486256269      -5.58223660760815
C        -8.37939441340014      -0.72603830326172      -2.64447921552828
C        -7.39344807437367       0.58211037953745      -5.17228295661643
C        -8.42279064823884      -3.15007748736118      -6.62467572022349
C        -7.59560549789304       0.40748777826790      -1.94814062459141
C        -7.04122866460488       0.67324939915907      -6.66893603812160
F        -7.10449884353572      -3.73834948499900      -4.76067567540045
F        -6.22418007176068      -2.36263379625680      -6.26839902062236
F        -8.19270088084247      -1.85187745052907      -1.84638142434892
F        -9.72192449995567      -0.37596046275115      -2.59744579019485
F        -6.26978947629174       1.01696796965483      -4.49256082816144
F        -8.40951491904246       1.49538265441640      -4.93087939677872
F        -7.89074502860545      -4.23524278511614      -7.29881599631259
F        -8.71131718368844      -2.17913318752360      -7.55868795749929
F        -9.59944766149165      -3.56372137987003      -6.02765634944508
F        -7.95836635550278       0.44109883662557      -0.61267575427685
F        -6.23360997615880       0.18966734491240      -2.00906137553016
F        -7.89629533441689       1.64388398199645      -2.48313639174538
F        -5.88584003422228      -0.02648411263237      -6.95172786148849
F        -6.80987744237102       2.00015297770037      -6.98736516456889
F        -8.07091962922611       0.22850858174679      -7.46931624865540
