48
C12H22F6N2O4S2 optimized with ForceField in AMS.
N        -0.50629675782602       0.01062600483781       0.00382003553444
C        -1.42882815060183      -0.55629570579677      -1.02711772707390
C        -1.40588812033525       0.60655338749177       1.03917682435912
C        -2.83016887747753      -0.05587049632811      -0.73685706071391
C        -2.82473503355505       0.15556011164818       0.75065926617090
C         0.34119121321949       1.07681364031175      -0.62436055909595
C         0.30945883583565      -1.08290356208862       0.62623924048370
C         1.35491772336599       1.74372495449378       0.33518947989068
C         1.29408898064656      -1.78223523402787      -0.34067494069759
C         2.07153081883654       2.90303241974966      -0.35267418414298
C         1.96794701360896      -2.97278775702425       0.33692919060113
H        -1.14004640605361      -0.29009320618351      -2.06830520550497
H        -1.47195506026011      -1.66895262680840      -0.98911358321568
H        -1.12589112878058       0.32775510064196       2.08107994795461
H        -1.41037820500542       1.72008329918002       1.00307133344374
H        -3.00283843317925       0.91274923650449      -1.25709235252128
H        -3.60550529582949      -0.79097282550484      -1.04521876988201
H        -3.02970589728663      -0.80703783934206       1.27047700852730
H        -3.57376193543537       0.91646211666838       1.06121607042349
H         0.90154788596958       0.66902213819064      -1.49460895849676
H        -0.31637218853875       1.87215991509499      -1.04753818367472
H         0.88840245864911      -0.69427442967205       1.49286071010937
H        -0.37149148378781      -1.85633350860698       1.05295317583553
H         0.84753898177761       2.13438977631224       1.24157140425982
H         2.12666947257180       1.01354343892774       0.65420393787538
H         2.09161622387987      -1.07933430063465      -0.65760838330268
H         0.76974390361516      -2.14761448894045      -1.24792509450841
H         2.63035254937892       2.53632264294186      -1.24013031390698
H         1.34032862204595       3.67553385942716      -0.67345456279179
H         2.79204171669180       3.36836308958082       0.35284928680266
H         2.54149348899376      -2.63448655956079       1.22623008248219
H         1.20887864172894      -3.72010859469648       0.65275150275114
H         2.66925939332155      -3.45907329554827      -0.37372537854677
N        -0.27620721922817       0.29267628673818      -7.16737266141753
S        -0.29130050297077       1.45831178814676      -6.01384047228443
S        -0.89118041114997       0.51470309565370      -8.67172137325340
C        -1.78278225989616       1.30806481279173      -5.05271562266498
C         0.44171486393807       0.87973960630131      -9.79396501925740
O         0.89073448223048       1.27105331255281      -5.10486739377344
O        -0.23139601822459       2.82423418469933      -6.63953410646589
O        -1.88348202677412       1.64427524315121      -8.68395367845010
O        -1.56641285691622      -0.75017368175505      -9.12161204102332
F        -1.76689926176173       2.22601222835748      -4.01966117387413
F        -1.86573209990094       0.03186472815058      -4.53105900313230
F        -2.87994767323526       1.54279571581417      -5.85827681566450
F        -0.06074323824716       1.08539848748964     -11.06475077035933
F         1.32701267838159      -0.18102425564876      -9.81817464246595
F         1.10176182247042       2.01753999251777      -9.37199169114212
