55
C15H29F2N3O4S2 optimized with DFTB in AMS.
N         2.89853738069279       0.06031582867878      -0.27877056861330
N         2.55662356574170      -2.06327672353326      -0.14335544344259
C         1.69479737881793       2.11734330440966      -0.87931012537629
C         2.80831683978120       1.49589999278534      -0.02897288186637
C         0.90547000031366      -3.34517189519442       1.23022139230340
C         2.09862086446309      -3.39019430219521       0.27859623309776
C         0.30035806252473       1.71481885550731      -0.39100497142611
C        -0.35039135674421      -2.75153497016616       0.58423891454533
C        -0.77065951103620       2.08315982202678      -1.42248059037855
C        -1.55052423373972      -2.81728655871717       1.53151403883374
C         2.31481476349683      -0.89403294862180       0.44760675109419
C         3.50483713034603      -0.50873755520995      -1.36433384579502
C         3.29849280641922      -1.84849155021206      -1.27219119459883
C        -2.13669780076942       1.51779757686124      -1.02478455131809
C        -2.81429168159849      -2.30234131196042       0.83563482572405
C        -3.18349465290254       1.79018822528093      -2.10281716656117
C        -4.01914495387747      -2.32300401041330       1.77375748646118
H         1.80816664298238       3.20406242648603      -0.83688128423307
H         1.82969473853933       1.80147025426435      -1.91685833181364
H         1.16976012264993      -2.79387308922806       2.13936452578586
H         0.70465573983045      -4.38039824656689       1.52353743010060
H         3.77553699507352       1.93526243754770      -0.28712787963747
H         2.62194278491869       1.64271349275008       1.03859722111492
H         2.94656582444191      -3.88964207389775       0.75994704408255
H         1.84056457776838      -3.94008054523125      -0.63030425569232
H         0.08924998161550       2.20173653920276       0.56773177611106
H         0.27573389236227       0.63352045376241      -0.22676832811217
H        -0.57825774509459      -3.30079098166294      -0.33257230087747
H        -0.16878405691896      -1.71025819715045       0.30570727324427
H        -0.83036066379120       3.17263079067467      -1.51870678433669
H        -0.48318275311702       1.67528497434640      -2.39583614307723
H        -1.34827631548080      -2.21620374206775       2.42588666696199
H        -1.70771503586939      -3.85257491404305       1.85402418572508
H         1.77537152812753      -0.73372946135503       1.36340290565659
H         4.01232480262991       0.07648468049355      -2.11056703692208
H         3.59711829943517      -2.65360828500865      -1.92076565332901
H        -2.04704015176812       0.43624460472223      -0.87756410456972
H        -2.45814767959724       1.96057392511039      -0.07523427926776
H        -3.02273095783363      -2.92393417881394      -0.04103001979023
H        -2.64348520905828      -1.27868325424331       0.48623531947798
H        -3.29337018337967       2.86290274096834      -2.26973544834389
H        -2.88954017996430       1.31974829566393      -3.04163680271992
H        -4.14848581211367       1.38463833290906      -1.79759769788437
H        -4.90216706162559      -1.94910136310645       1.25507642966183
H        -3.83674720775072      -1.69375980013480       2.64658864297890
H        -4.22133136743180      -3.33931603135633       2.11525258819553
N         1.70677744464929      -2.11223905699951      -3.63595920711429
S         0.65963868754615      -0.95132813839915      -3.40682383494357
S         1.23056584460448      -3.60588642771837      -3.34799193460695
F         0.41492621144723      -1.00875968994205      -1.77019260160093
F         0.67384099772280      -4.10440701387195      -4.76960283404876
O         1.36319875357904       0.28485600276009      -3.57200514413910
O        -0.65075443215900      -1.08623241389678      -3.94517557643225
O         0.13926256776113      -3.78467388045605      -2.43932848212371
O         2.41597612803980      -4.37963416313777      -3.12889040896391
