42
C10H18F6N2O4S2 optimized with ADF in AMS.
N         1.01115207602099       0.62021056779284      -0.33982582924845
C         1.82693400043164       0.78961729991956      -1.62500933080300
C         0.73995794604817       2.04673374921779       0.10033314593983
C         2.50761411278304       2.16441562897508      -1.52846273968730
C         2.03365843290733       2.78237842981778      -0.19757884993800
C         1.85339967816990      -0.07654306345619       0.72628286240221
C        -0.26895656671586      -0.12417856574004      -0.62825676694136
C         2.08837729885503      -1.54762921905818       0.47052465416960
C        -1.16303558895964      -0.32829286747390       0.57877370630698
H         1.11144327107678       0.73456646858604      -2.45806446724764
H         2.53958020881098      -0.04223533781600      -1.70263223463367
H         0.43246285286960       2.05101032728585       1.15386168255398
H        -0.08745446536785       2.41350097235917      -0.52927566566995
H         2.20374022453276       2.78849308015480      -2.38203143189435
H         3.59823095234138       2.05380597410119      -1.54679911603308
H         2.77723093716825       2.61387021398886       0.59537831192070
H         1.85983174668742       3.86575269633585      -0.27016294003058
H         2.81533217125458       0.45391762937081       0.74620063715978
H         1.33411245336070       0.09613397268392       1.68067779079707
H        -0.78633210853543       0.46656164036112      -1.40019458741744
H         0.02380260266250      -1.08301749811483      -1.07902877779056
H         2.78632798316305      -1.90083271321192       1.24391629949698
H         1.17315514963726      -2.15291373543186       0.54101863341368
H         2.58523435974614      -1.72940194198065      -0.49294778898049
H        -2.07292955828991      -0.85181536577177       0.24766018281155
H        -0.68912788395002      -0.94872662378937       1.35088529026155
H        -1.47794454599925       0.62351584874249       1.02891265109002
N         4.91581424648834       0.09237425736106      -0.37041011165291
S         5.50895966103344      -0.99173270252015      -1.41299044127347
S         5.79542893732830       0.94224717331943       0.68425964066048
C         6.03811562501239      -2.52672825100948      -0.41224715698920
C         6.69130409965197       2.30259886990389      -0.29719134519551
O         4.33631111335635      -1.46898409519688      -2.15585024599522
O         6.71606768733227      -0.59344949133664      -2.12231412173649
O         6.86644102728933       0.21453624815894       1.34925526185221
O         4.81077969139518       1.69671325952537       1.46737638959354
F         5.93324923112755      -3.61203494163878      -1.22001465153907
F         5.22802260474947      -2.71933468641190       0.66266700354806
F         7.30758607281114      -2.42994232172832       0.01392065872018
F         6.96153661044258       3.33134565621420       0.54443166194673
F         5.90680568493518       2.77866768994748      -1.30430185449891
F         7.84516688593700       1.85944724866333      -0.82169862404844
