40
C12H26ClN optimized with ForceField in AMS.
N        -1.62572503693554      -0.31220949087286      -0.20248520719899
C        -1.93034059704950       1.08873644476908       0.22218961745309
C        -2.62943808149916      -1.26010411790960       0.37785807622432
C        -0.28861784766528      -0.72872640038709       0.33725179283463
C        -3.37906916013925       1.51997620644948      -0.06882663284912
C        -4.09588289115926      -0.87502638455913       0.11021869216428
C        -4.37798542942987       0.55422813796410       0.55911699864112
C        -1.61973749099646      -0.42676766661970      -1.68644801344863
C         0.92790823916860       0.07837690901133      -0.17864667282821
C         2.22701907927474      -0.44490979103043       0.44866756090457
C         3.44444416608972       0.32238681067795      -0.08036669953797
C         4.74054113554746      -0.21093771620914       0.53969968272562
C         5.95281030369795       0.56706483774798       0.03636202463194
H        -1.26747280148272       1.81352572305094      -0.29846776191899
H        -1.74968327065039       1.20844390784863       1.31546255303946
H        -2.50700589543191      -1.31944792058081       1.48477606460951
H        -2.46545160974407      -2.29048832570433      -0.01411110987344
H        -0.29138670561831      -0.65709330744952       1.45011355892963
H        -0.10458236781075      -1.80196267687984       0.09668490267740
H        -3.54713808312604       2.53357047067557       0.35591583805918
H        -3.55256031823147       1.58941163367254      -1.16374926124479
H        -4.35417566145130      -1.00065089654795      -0.96139117292586
H        -4.75687251083381      -1.56383875080113       0.67972320134953
H        -4.31494998701096       0.61780355687140       1.66799427153961
H        -5.40837227078440       0.83906155774922       0.25498481689288
H        -0.98451236478166       0.35518688318582      -2.15357031322029
H        -1.24554673866712      -1.42327956591236      -2.01018341959346
H        -2.62790082869282      -0.29475614517787      -2.12381969538549
H         1.01823443854748      -0.02031166979696      -1.28000729732445
H         0.82274794362968       1.15117185964053       0.08405556843555
H         2.17343785232341      -0.33278539391766       1.55420918104841
H         2.34305723043184      -1.52528811478737       0.20830420436258
H         3.33480623125361       1.40239263280395       0.16385339771948
H         3.49587838444412       0.21164252077011      -1.18651928456781
H         4.86706962829148      -1.28381128935856       0.27618108982038
H         4.69238073232079      -0.12345082898890       1.64742710605981
H         6.00137414539214       0.53744738357745      -1.07329511007226
H         5.89915547513410       1.62349817500389       0.37590653823666
H         6.87988546042259       0.11110479177473       0.44193478004864
Cl        7.72971209792235      -1.78472835415351      -2.40791160701853
