37
C11H24ClN optimized with ForceField in AMS.
N        -0.55520472844709       0.07684973204305      -0.09549381099673
C        -1.56720229047203       0.49223203477534      -1.12082348241179
C        -0.86245217446437      -1.32366479337523       0.34341205633325
C         0.77927620749950       0.08375071666318      -0.78906029364615
C        -0.56227569357511       0.98979458190479       1.10005031924977
C        -3.02526267668456       0.36994274005069      -0.65036485659780
C        -2.31185385327383      -1.52571447009139       0.83267945089402
C        -3.32409990273289      -1.05902016106675      -0.20955188877204
C         2.00871351321836      -0.24377438815716       0.09451710809933
C        -0.19131705586094       2.45758565117969       0.82212462152558
C         3.29043668137175      -0.24273867406480      -0.75126639229118
C         4.52500673087808      -0.53331846590100       0.09762777638743
H        -1.46868475751627      -0.14322446778924      -2.03226365989699
H        -1.38956429585072       1.53057374653344      -1.47073774081606
H        -0.19447887173732      -1.63474105566521       1.17536822396755
H        -0.68965472134145      -2.03997453505957      -0.49256865725797
H         0.95600720226120       1.06914830582499      -1.27485229038618
H         0.76970258825408      -0.65029588547387      -1.62805629994290
H        -1.55589277233204       1.00596648487373       1.58717973983929
H         0.12237954569291       0.60553440850974       1.88634769143599
H        -3.69939110678386       0.63090685553269      -1.49484585162503
H        -3.24630586146234       1.08585188933476       0.16772395278867
H        -2.48398750810565      -0.99836502156873       1.79400007163773
H        -2.47812291160522      -2.60692769118423       1.02950167655867
H        -4.34879221881871      -1.10887648028247       0.21773656004443
H        -3.28645672664201      -1.73553709569965      -1.09180020296459
H         1.90075808627114      -1.24480395215065       0.55899871418365
H         2.12602882452095       0.51379193125994       0.89607587281108
H        -0.21074981754976       3.01771944113490       1.78098626257006
H         0.83099402117813       2.55804405965899       0.40830729026599
H        -0.92535916914460       2.94490288155261       0.15066732567325
H         3.41859700586007       0.74946405715275      -1.23631163854854
H         3.21460000554277      -1.01505550102208      -1.54749742446819
H         4.43926215922430      -1.52957396680585       0.57913811772166
H         4.64817177791755       0.24416287992500       0.88103686382469
H         5.42782894948497      -0.52996508455935      -0.54894959457373
Cl        3.20840312842499      -4.22791874409307       0.72586461328377
