59
C17H21F18N2P optimized with DFTB in AMS.
N        -2.07854238061393      -1.22984729400854       0.07987454802799
N        -0.79202792848065      -0.62595909296202      -1.53774876824360
C        -2.72344932658811      -1.30339416374436       1.38727374089625
C         0.28184663682655       0.00686832924155      -2.29920841129459
C        -3.88960652043992      -0.31263140991663       1.47082816098179
C        -0.02367314023541       1.47275534608067      -2.61791192284052
C        -1.01935471980486      -0.48200498328585      -0.23104229317359
C        -2.54435669337736      -1.84367240348160      -1.04755287527991
C        -1.73642866122957      -1.45814128414488      -2.06983820873752
C        -3.41298853045860       1.14094754349886       1.51646944296447
C         0.03530891116493       2.37396127342447      -1.37963620798928
C        -4.59532286632206       2.09682332947154       1.65402567908347
C         0.15200521521439       3.84599810959994      -1.77150701286798
H        -3.08402043206820      -2.32707679797701       1.51622073760160
H        -1.96961587824902      -1.08975413376385       2.15027838349824
H         1.20502842192711      -0.07892882347287      -1.71762164137524
H         0.39201988173078      -0.56208432404780      -3.22530964322385
H        -4.45411516217170      -0.54711355713245       2.37810166387914
H        -4.54967542785763      -0.46178493476011       0.61221247888464
H        -1.00590676582364       1.54405498630983      -3.09056734474756
H         0.72664966407928       1.79918639072622      -3.34428250098405
H        -0.43158207039534       0.09765551727261       0.45830596814457
H        -3.40983280590165      -2.48114685556365      -1.03631073085331
H        -1.77274560036998      -1.69069631024005      -3.11934104030282
H        -2.72535488607769       1.27481693254485       2.36001949739183
H        -2.86446556541640       1.36964444985223       0.59835001117957
H        -0.86807632354209       2.22842011288327      -0.77995425178789
H         0.89908777011530       2.09547358750326      -0.76399676013413
H        -5.09052049598472       1.95624298582497       2.61571039046574
H        -5.32056167390652       1.91819604782818       0.86112765360786
H        -4.24929203972239       3.12775217387442       1.58483236137927
H        -0.67884004246599       4.13730287636352      -2.41159582270674
H         1.08488312712707       4.02472448236782      -2.30766372887993
H         0.13824705942784       4.46847686936555      -0.87707340633140
P        -5.03204182494748       0.42350568413221      -3.09983770012897
F        -3.46877621194042       0.10646714972194      -3.69185264680697
F        -4.61690223418143      -0.47285451779617      -1.70411067817893
F        -5.45204491162162       1.31538785267743      -4.45320241110334
C        -4.15498185278680       2.02489602419030      -2.34701774362755
C        -5.55771873315875      -1.18353778850748      -4.10942861412264
C        -6.79886886694591       0.68317716617147      -2.21601688477404
C        -3.63369869889112       3.10036983850293      -3.33947155257387
C        -5.31488255555070      -2.58078562549687      -3.48336919309252
C        -7.80652227914173       1.69883781878638      -2.80866605334862
F        -3.05381817857182       1.61080225778937      -1.66251766727164
F        -4.91090809605333       2.70393020855394      -1.46787544260902
F        -4.85744428449320      -1.19064557084705      -5.25885476699364
F        -6.85295058898832      -1.11287293454485      -4.45635054156970
F        -6.59780960495412       1.04295575042421      -0.92886658919587
F        -7.41496753180008      -0.51442244890785      -2.16240197935200
F        -2.94289220237357       4.02394935606672      -2.65222846958925
F        -4.61810101172949       3.72439382725007      -3.96535230151221
F        -2.80325432348319       2.58877123232382      -4.24652365145930
F        -3.99212898015080      -2.79412001810676      -3.35599312515576
F        -5.85287497464582      -2.71974451119809      -2.27534065247927
F        -5.79799832625509      -3.54658695334257      -4.25956791158397
F        -7.22923396982797       2.89230833127098      -2.94644004289259
F        -8.86208195792948       1.84487476067272      -2.00686102733409
F        -8.24362605508759       1.30390868738111      -3.99829777247670
