28
C8H14F3NO2 optimized with DFTB in AMS.
N         1.09363671368186       0.43083515544267      -0.02919358524456
C        -0.05894324957782       0.90541958581760      -0.85313727272108
C         0.76524574779272      -0.99890886915176       0.27137774207635
C        -1.28610042112083       0.21751814307975      -0.25762206659335
C        -0.74569165163524      -1.02106519336465       0.47748857519273
C         1.19488848933146       1.21035533608085       1.23500635351308
C         2.37693435594394       0.54701105166916      -0.76634960334108
H         0.11333285459027       0.58169994103985      -1.88229479309107
H        -0.10645164075217       1.99437424450565      -0.82040779548828
H         1.32881494961872      -1.31081679825046       1.15833298323892
H         1.05906468231693      -1.59668669157211      -0.59364019939747
H        -1.98358269997939      -0.05734467046466      -1.05072141345736
H        -1.80507141466663       0.88361012639597       0.43445158669621
H        -0.98999630898687      -0.97372332516507       1.54043831044402
H        -1.16873804735156      -1.94215760726415       0.07365895877060
H         1.37870680352427       2.25476454540549       0.99072002685414
H         0.26758583103921       1.11217586510834       1.79367140489807
H         2.02074069452935       0.80287870099470       1.81703044721019
H         2.32113790249501      -0.04198333447628      -1.67968224530380
H         2.54966335993192       1.59476279433476      -1.00460428359733
H         3.17127937496207       0.17385057815871      -0.11300963734845
C         3.56807724148268      -0.94882078551290       2.50119575282868
O         2.38826252874896      -1.17803264396987       2.78674262720010
O         4.03740006749053      -0.21840894885245       1.62494844916678
C         4.63761976250139      -1.72165709529183       3.40251696469210
F         5.89592041517331      -1.55227456740554       2.97278331118384
F         4.40268383759923      -3.04601675204639       3.41495868216483
F         4.59825666671673      -1.30359799844542       4.68049827645318
