35
C11H17F3N2O2 optimized with ADF in AMS.
N        -0.40936194139773      -1.09319930048003       0.42833827141970
N        -2.31957282696661      -0.09269409887798       0.15438820101442
C         0.82983081147281      -1.52912902239396       1.07883585038448
C         2.07986560412746      -1.00731625077204       0.38109128962731
C         2.19414104254175       0.51543935691139       0.38398675040049
C        -1.19991728543242      -0.11175365480847       0.88581734321132
C        -1.06498700833732      -1.74297403322900      -0.60306519533403
C        -2.26155890968200      -1.11580750835549      -0.77396478787796
C        -3.49130561804484       0.73557732111142       0.46023585186037
C         3.46433968895699       1.00979319863189      -0.30476846527499
C        -3.65405098579640       1.89667661744727      -0.50723858509894
H         0.75710542038049      -1.18963588204645       2.12315732087620
H         0.80036634389801      -2.62749195600774       1.10659511831709
H         2.10955654180095      -1.38362163727541      -0.65800361587570
H         2.95000195704285      -1.45011330973147       0.89811844975453
H         1.31228971322778       0.94874863597789      -0.12115761122197
H         2.17135097978639       0.87610901221504       1.42908262433097
H        -0.98713307321553       0.53313937266964       1.72508870379164
H        -0.64765202210445      -2.62044009823389      -1.08027576620481
H        -4.35008704494448       0.04995056746422       0.47486422809025
H        -3.36227162857347       1.06724990958278       1.50014210157663
H        -3.09981437073579      -1.35017872303870      -1.41708469808166
H         3.49530202616682       0.68299956841298      -1.35644594132122
H         4.36436356505837       0.61797943301035       0.19500834567333
H         3.52334242391046       2.10867611495065      -0.29243466981606
H        -2.78894127421869       2.57554462576815      -0.47124966819803
H        -4.55206064557564       2.47012795588478      -0.23429502471120
H        -3.77697651970431       1.54823287533771      -1.54340408766650
C        -2.66705396804659      -2.05866256375190       2.55575111299541
O        -1.81052677967368      -1.26177320745558       3.03613976476469
O        -3.72291689945403      -1.84901544769649       1.92672974188018
C        -2.26850036727606      -3.56637592929051       2.73340947468306
F        -3.26442856874883      -4.44274632110152       2.43569401552788
F        -1.83361601622300      -3.86312614486879       3.99343713317693
F        -1.21496662101923      -3.87722812876074       1.87437351502619
