26
C8H11F3N2O2 optimized with DFTB in AMS.
N         0.19387093031248       0.37525087759909      -0.08958320519918
N         2.21931112213616      -0.13056688392343      -0.62096641147510
C        -1.16626825874340       0.24644938280917       0.42850924553230
C         1.05384433338971      -0.63342604038278      -0.21254149551821
C         0.84584154784526       1.55389658429961      -0.34589614877533
C         2.12312192163786       1.23482653486187      -0.67628645645685
C        -1.13228228607654       0.11466522918417       1.94738144050566
C         3.45087173309838      -0.90145794705348      -0.68514225199881
H        -1.72402188850380       1.13402033974673       0.11892942739211
H        -1.61776501627474      -0.63713842458692      -0.03264066534154
H         0.83238716118423      -1.67560426738646      -0.07090281633398
H         0.35385529402023       2.50688525662062      -0.26516840707882
H         2.96329729090118       1.85456665304572      -0.93439137426336
H        -0.50654258160922      -0.72937950596201       2.23487212057457
H        -2.14446216927709      -0.03596789837570       2.31947911863470
H        -0.70716829384198       1.01288746187664       2.39251747196914
H         3.36063033672918      -1.67733823656589      -1.44535729610282
H         4.27305866190748      -0.23112965544040      -0.92357557110863
H         3.61119309619317      -1.35629798751018       0.29490319784793
C         2.24687923478687       0.14679310330419       2.40734841978653
O         1.59322712254366       1.13016108420621       2.71115198906595
O         1.92209244455903      -0.96618873764094       1.97143653557501
C         3.85161574326788       0.35373815908962       2.46543169127671
F         4.53230160788073      -0.80599253612651       2.42942028282457
F         4.30015748013681       1.05185545407480       3.50916416857069
F         4.23425135459645       1.03443239263626       1.34284649199683
