32
C10H15F3N2O2 optimized with DFTB in AMS.
H         1.28496611855951      -0.09552740448372      -4.76020823606910
H        -0.47973343660626      -0.28912315261544      -4.56643664313540
H         0.56569150186850      -1.73078037556366      -4.70457214819089
C         0.49414989406138      -0.71221460917213      -4.32694594669997
H         2.23398346671944      -1.30019508673168      -0.09610302211224
H         2.20358093991050      -2.21018859430483      -2.71161922020198
H        -0.61518291891044       0.89435677556454      -2.29116196868345
N         0.67283873605185      -0.71903028633155      -2.88528300437480
C         0.13488207064482       0.16379245924852      -2.04581488094848
N         0.69344408632115      -0.01491020287246      -0.85157679527086
C         1.62907519695703      -1.01086000768251      -0.93688420353312
C         1.61855718550496      -1.45347422808600      -2.21966432618012
C         0.52044808730935       0.87246197094836       0.29299322490418
H         1.51258844027246       1.25099102497057       0.55696060507000
H        -0.10022907546432       1.71089441547242      -0.03182040422081
C        -0.12286587128290       0.13155958886126       1.46497512900509
H         0.50557660554376      -0.71925520705142       1.74597183294558
H        -1.09776063533013      -0.25844143506809       1.15477584670312
C        -0.29141586893206       1.07118748921830       2.66325407568994
H         0.68778853728882       1.46403538337034       2.95490007133355
H        -0.92016450801536       1.91911745122014       2.37290191346923
C        -0.92543300035036       0.34744912273553       3.84907021675187
H        -0.30121224805699      -0.48936699061060       4.16487426298990
H        -1.91137071956279      -0.03508628138147       3.58183103743403
H        -1.03458687411290       1.03553954532957       4.68697864857842
C         3.57247465342242       3.46354489665531      -2.86267469547803
O         3.79557844803447       4.05089167718429      -1.83758585470153
O         3.75222138207812       3.55671637447994      -4.04732389530415
C         2.66505871576583       1.99543744507114      -2.50941848689117
F         2.76785325326050       0.99524135567907      -3.43164351722250
F         1.31096734536946       2.23842561833126      -2.43063260050995
F         2.97072279308019       1.40482369621498      -1.31935144724636
