58
C18H34F3NO2 optimized with ForceField in AMS.
N        -0.01572811046265       1.98664068951475       0.00586342882043
C        -0.69723437125861       2.88923786753357      -0.97335574961015
C         0.64190218711570       2.90466559325680       0.98673413581310
C        -1.02747172462454       1.14014175803502       0.71884792085240
C         1.01687574288954       1.16743205508619      -0.70913907280295
C        -0.22652823708263       4.30904886807974      -0.72018689480154
C         0.13113945213278       4.31140351750937       0.73923102139398
C        -1.75572179703916       0.11187143133774      -0.18007627726034
C         1.78079871061759       0.16476008563670       0.18937933192902
C        -2.87544107929235      -0.59018974032517       0.59816030972194
C         2.89124698959315      -0.53528648038454      -0.60394676783076
C        -3.62576196920926      -1.59394642149326      -0.28500107437823
C         3.65705472304662      -1.53381893796186       0.27191006669133
C        -4.69173563714021      -2.34173289729442       0.52503988622188
C         4.72995888276828      -2.26517011915742      -0.54372716404174
C        -5.44526822706732      -3.34378725207523      -0.34417396165174
C         5.49733255992705      -3.26135915621273       0.32031722158327
H        -0.50471361368308       2.61369990148339      -2.03514805501385
H        -1.80450382906352       2.88904811187781      -0.84775978535415
H         0.45934283086280       2.62026576588312       2.04795790998040
H         1.74828714751778       2.93649673066369       0.85822449516558
H        -0.55305626781012       0.59130044014339       1.56210350600083
H        -1.79238927322302       1.79862204163744       1.19286959068599
H         0.55306904191995       0.60216772704686      -1.54756259556665
H         1.76045148141432       1.84558868200052      -1.18929073281106
H         0.67826493549644       4.52217197108816      -1.33140134839174
H        -1.01691076083082       5.05711356689651      -0.94721278925245
H        -0.77902357070666       4.49662160221681       1.35150906243867
H         0.90038630135075       5.08039492798053       0.96915658741766
H        -2.18859563616831       0.61032831040852      -1.07126513868974
H        -1.04257557116784      -0.66301165990004      -0.53050411382040
H         2.23135393580303       0.68521139313283       1.06032725313920
H         1.08812077435571      -0.61410390739406       0.57012217305803
H        -2.43201225836616      -1.12428444904308       1.46765607645696
H        -3.59479601074272       0.16785374975704       0.97902297534302
H         3.60108683263239       0.22538448299180      -0.99728118568154
H         2.43858950071539      -1.07453045171072      -1.46542152450143
H        -4.11280259109440      -1.05173937457041      -1.12553773931318
H        -2.90452582054868      -2.32761238331307      -0.70781211131039
H         4.13972202129471      -0.98978640323555       1.11369843097513
H         2.94578757672487      -2.27803393505125       0.69329396065640
H        -5.41861714134143      -1.61571385943364       0.94980334133292
H        -4.20890056742681      -2.88817521165238       1.36434293499890
H         4.25195562900903      -2.81377374939246      -1.38431086283088
H         5.44717276123322      -1.52855460069737      -0.96664789999364
H        -5.96513151681918      -2.82017666320383      -1.17413776899902
H        -6.20270093751239      -3.87280857051493       0.27238448070924
H        -4.74315769680965      -4.09465635676002      -0.76466411979087
H         4.80529936104473      -4.02256753421612       0.73892996954092
H         6.26062926975700      -3.77822434068576      -0.29921900486502
H         6.01171780176042      -2.73475533255196       1.15184434182683
C        -5.18164926845022       1.70871845904353      -3.04383190843475
O        -4.35310428698243       1.80329207991621      -2.15279162810528
O        -5.05411366051743       0.84539520621968      -3.89700741487176
C        -6.35242546016045       2.64485985815861      -3.09610477954668
F        -6.33358643093282       3.34267748988908      -4.28968660309822
F        -6.30231135382828       3.54627399097115      -2.04682934252934
F        -7.52707092862010       1.92051048553471      -3.01143950150452
