41
C11H21F6N2P optimized with DFTB in AMS.
N        -0.15293823925290       0.45204027902367       0.70723767212916
N        -0.06636302954272      -1.61404143833160       1.30243860078190
C         1.26827925333038       2.37262614894498       0.03678441348200
C         2.13740482103489       2.25424595540273      -1.22027280637882
C        -0.09804705114097       1.67123651052122      -0.09474948352817
C         2.52438714591213       0.80674204558509      -1.53837971031878
C         3.64153647426180       0.73099450440322      -2.58273334488717
C         0.02152618908339      -0.79107650624262       0.26240858051277
C        -0.31579344920178       0.42029840818097       2.06665013013327
C        -0.26215141013868      -0.88475776040215       2.44027730693191
C         0.10785949647178      -3.06201187622489       1.24759613624506
C         4.08063353477425      -0.71695877836598      -2.79430763153939
C        -1.24200379735848      -3.75861308252993       1.35706533820142
H         1.08940265257990       3.43200697090421       0.24135035376149
H         1.80518969243166       1.95378256999773       0.89076581003366
H         3.04646320997004       2.83773302047462      -1.04349744410622
H         1.61603486503277       2.70189352458401      -2.07405405294723
H        -0.89918654375837       2.32374799256430       0.26353102200296
H        -0.31244857068817       1.39753523014372      -1.13105491766561
H         1.64846335182399       0.26263715363373      -1.91201606658239
H         2.86263088366529       0.31676091417245      -0.62344825161952
H         4.49759868489641       1.32136947001357      -2.23994250184242
H         3.29560983240694       1.15933376190769      -3.53053914807227
H         0.21241733003900      -1.08168162427624      -0.75542489902809
H        -0.44706581287442       1.31640321394985       2.64687892064897
H        -0.31622833791913      -1.34674948444243       3.41010465344285
H         0.60210998899690      -3.29872376127055       0.30346162470383
H         0.76804197789371      -3.33816684943066       2.07256935574926
H         3.24606342751927      -1.32199260177497      -3.15286342053823
H         4.43778428358171      -1.14046274220431      -1.85539292551882
H         4.88543207760121      -0.76269073320057      -3.52844711835136
H        -1.72792744005292      -3.50580928483918       2.29912556377103
H        -1.09063616128053      -4.83621937998870       1.31765838049719
H        -1.89347552479752      -3.46289985786291       0.53458392724941
P         3.42773965946881      -1.33566576309142       1.76796200035830
F         4.22027686591420      -2.75765360520973       1.80858946066874
F         4.27140901760694      -0.76106221316629       3.03427858177880
F         4.50643961136307      -0.70832696302318       0.70801688988840
F         2.54304464450921       0.08749199267296       1.70626034519204
F         2.50979251534847      -1.89449587554669       0.46935376395357
F         2.27084984078859      -1.94803233705575       2.80693509300650
