68
C18H36F6N2O4S2 optimized with DFTB in AMS.
N         1.21001259208368      -0.52673568021929       0.24884443742886
C         1.53689091023619      -1.87536770174435       0.83862375528334
C         0.64726983762048       0.36344196985216       1.33082122944957
C         0.23207191996527      -0.71477486858752      -0.87652661340236
C         2.46097427156904       0.12664124035343      -0.29274720133600
C         2.32770324133003      -1.84530762786674       2.14554305865002
C         0.02483775668053       1.67239144972883       0.84930337762048
C        -1.15784798890053      -1.20901497236527      -0.47545329665998
C         3.15627115533422      -0.58496154186967      -1.45032432190245
C         2.82905895959701      -3.25817496137093       2.46769942315433
C        -0.30405111651272       2.53935237068335       2.07217265786859
C        -2.05718978155205      -1.23600816771946      -1.71850469554644
C         4.31161336223992       0.30002240153713      -1.94285053306875
C         3.51827630074440      -3.28984913464239       3.83029888868428
C        -0.92537953557875       3.86706666378515       1.64692618742970
C        -3.45666877270558      -1.73887869079126      -1.37188596590943
C         5.10125242265673      -0.39291100598932      -3.04951319361124
H         2.08807172523529      -2.42738849840258       0.07392510359282
H         0.58905594204668      -2.38925527603507       1.01162819983171
H         1.47698784880103       0.59160294158482       2.00162446164960
H        -0.09250236680052      -0.22526395246665       1.87866968484100
H         0.67507916238995      -1.43762670801223      -1.56477189403447
H         0.15208078335058       0.24622459696905      -1.39001644549219
H         3.15631774992221       0.20800550739529       0.54076305017856
H         2.18065980991479       1.13510142204088      -0.60050259463865
H         1.68885255844710      -1.49514172087536       2.96032639798406
H         3.18139621490340      -1.17161905012270       2.07748191391008
H        -0.88888695549933       1.48968433317714       0.27721184388504
H         0.72286599326383       2.22007060225233       0.21370667802220
H        -1.60824008915582      -0.55657038212272       0.27501011160488
H        -1.10216941380162      -2.21670875618752      -0.05542559244434
H         2.47011452000126      -0.76345480815619      -2.28291772936021
H         3.55679862239970      -1.54844366335513      -1.12380038176227
H         3.53337380690165      -3.57741833255642       1.69248703351665
H         1.98523203118214      -3.95748516241245       2.46516491471606
H         0.61695415573778       2.73267057505946       2.62909476290542
H        -0.99444628968367       1.99985367140889       2.72952621272825
H        -1.61054264746420      -1.88738849122640      -2.47682115466818
H        -2.12448041466933      -0.22742521226727      -2.13913536342942
H         4.97897497805276       0.52844793262091      -1.10830325472833
H         3.90618496504259       1.24632590814472      -2.31501230057422
H         2.81735551474709      -3.01130445651996       4.61795376353712
H         4.35664021032593      -2.59441123203683       3.84821598297515
H         3.89158131325581      -4.29343419670116       4.03312377760447
H        -1.85008178596253       3.70106050343292       1.09176121243914
H        -0.23310243943180       4.42344561316063       1.01451891160165
H        -1.15061040830067       4.46774422500782       2.52781194675447
H        -3.92292409957072      -1.09001232449276      -0.62970553259822
H        -3.41081807436175      -2.75153376500387      -0.96971942682545
H        -4.07847474682813      -1.74741100986718      -2.26663455246400
H         4.45972213148120      -0.61170396429733      -3.90478461625845
H         5.52828037954762      -1.32788196057092      -2.68479833152753
H         5.91364752282383       0.25399229116053      -3.37890197119801
N         5.00445885350897       1.89272938021200       0.90710632819531
S         6.39555341914391       1.26081209059245       1.41823168401038
S         3.87530490506350       2.18012593890015       1.99832094573326
C         6.09329787413487      -0.56636910187248       1.74000263939634
C         4.41934225722823       3.47876988144532       3.24659120467899
O         7.27158285854444       1.24449668831723       0.28019340279271
O         6.87169451970517       1.78137170707042       2.67163478391085
O         3.50730543385388       1.02462646677993       2.80893459937034
O         2.78433184547277       2.81249502050003       1.28062317974754
F         7.19942709150300      -1.25093748432054       1.51141935849261
F         5.14754341143094      -1.02321415704775       0.90202324698616
F         5.69107059742009      -0.80631601396923       2.97518279036395
F         3.34357633365902       4.17725286797397       3.58518442415280
F         5.30685244389220       4.29329656498475       2.71209979203179
F         4.91554847978694       2.91543192433330       4.32635459512993
