41
C13H21F3N2O2 optimized with ADF in AMS.
N        -0.24279226998565       1.41977984079497      -0.17393424114342
N        -1.21059966100115       0.24579011961646       1.37726149335200
C         1.96837616213690       2.23434298058645      -1.03855876250309
C         3.03084955416944       1.35570077725075      -1.70837444266963
C         0.54019978633353       1.77056577925338      -1.36929746580613
C         3.08308656195170      -0.05018588118602      -1.11445629708574
C         4.18321175356117      -0.92271406079813      -1.71264265970586
C        -0.47098778522438       0.17663028942285       0.26125669887396
C        -0.80394029370861       2.31110051315833       0.71613502944111
C        -1.41230801665704       1.57283804640776       1.68973210932289
C        -1.58024169620787      -0.94651828571732       2.17048777973524
C         4.26660492452735      -2.28968918667351      -1.03650920647968
C        -2.38354415803955      -0.60408310225024       3.40683869910691
H         2.08839367298167       3.28587334506020      -1.34565656508985
H         2.10527997978666       2.16964250165758       0.05624190468739
H         4.01422585282065       1.83914257007955      -1.57092902806186
H         2.85778757776971       1.30963283573756      -2.80220435369246
H        -0.04109352896579       2.53517296824429      -1.90606978967612
H         0.54924609568888       0.86889710155971      -1.99918822328424
H         2.11470123719379      -0.56604566904757      -1.26226068575099
H         3.20342368917496       0.02566038030883      -0.02004069364090
H         5.15160017340811      -0.39925109841050      -1.60970043651392
H         4.01186401385800      -1.04664501717722      -2.79859872944823
H        -0.08112623630473      -0.73079658672144      -0.17827977790282
H        -0.69022874122424       3.38083093755395       0.60038538008780
H        -1.94083835213281       1.88049910514941       2.58036851580513
H        -2.15162552109939      -1.60677680729198       1.49915901308640
H        -0.61891896795977      -1.42307576844347       2.42929055946800
H         3.31567949932127      -2.83813023288780      -1.13836670118903
H         4.46138073105369      -2.17557539913290       0.04130509263780
H         5.06610748503820      -2.91147651078635      -1.46703830893486
H        -1.79861462040094       0.01531561612223       4.10169241171201
H        -2.62586131115747      -1.54223291145570       3.92623333317996
H        -3.33171214134383      -0.10108944160762       3.16142077866936
C         1.68667645703163       0.20038033619299       2.48820588672620
O         1.45141404619475      -0.89699262862130       1.91832258792260
O         2.03665373847842       1.31181141324779       2.03549543161082
C         1.46793979813384       0.21372008604796       4.04629335237273
F         2.60786534458967       0.51647999583186       4.73044273929549
F         1.00132839035031      -0.97093607313375       4.55473716942712
F         0.52607351745890       1.16674395875795       4.40003681815795
