44
C12H26BF4N optimized with ADF in AMS.
N        -0.53802011750456      -0.24794482673305      -0.29531921500822
C        -0.92968149184300       1.19793652358010      -0.58568045208930
C        -1.79210585437622      -1.09915217258989      -0.25518005981630
C         0.10384425751381      -0.32850004190701       1.08520449475857
C        -1.77009963906856       1.33533926241642      -1.84104412272002
C        -2.63089984190968      -0.99280905021825      -1.51802698897466
C        -3.01707446578909       0.45842364346804      -1.79813067336134
C         0.41094538101103      -0.76858677473378      -1.33209928971072
C         1.43206883876775       0.40794531552033       1.24882015530242
C         2.67780304699184      -0.47260234079083       1.12698598931466
C         3.95536539498314       0.35283890777335       1.27650673001256
C         5.23971667563794      -0.44041962006476       1.02177992373675
C         5.37302823365586      -0.93194539637684      -0.42051291312471
H        -0.00322951535735       1.78425541611208      -0.67582036730566
H        -1.49237704174226       1.52337811476400       0.30539296307767
H        -2.36903899644741      -0.74454685069078       0.61441581059743
H        -1.46700156707295      -2.13257143405642      -0.06109563961061
H        -0.66255949652702       0.07014411056360       1.76784029657497
H         0.21817260038144      -1.40502909065404       1.29530195697084
H        -2.03628230630690       2.40230738396225      -1.92102409473069
H        -1.14608160258168       1.12594515814338      -2.72409863029052
H        -2.08799256372831      -1.42015733682536      -2.37719387197680
H        -3.52520189706561      -1.62236733411992      -1.37015447323176
H        -3.69510338723874       0.81188202796596      -0.99842443070581
H        -3.57324195799132       0.52802629326691      -2.74629202984112
H         1.32380625917514      -0.15927795357726      -1.33903721290395
H         0.63110701163119      -1.81687541627596      -1.08837456263919
H        -0.05165434588640      -0.69096514922926      -2.31933749917801
H         1.51305724157290       1.24603131156247       0.53711592701802
H         1.41932974747800       0.87467798189898       2.25020619407091
H         2.64992399650711      -1.27155825708749       1.89456336254904
H         2.68795717336593      -0.96697544824707       0.14404452323293
H         3.98853017559626       0.79060603573202       2.29172602023661
H         3.90645138993039       1.19185678399806       0.56002182041285
H         5.29692613121511      -1.29685481765182       1.71976355104424
H         6.09944185493646       0.21071693851267       1.25989636249475
H         4.61501562717222      -1.69240162947684      -0.66493747507406
H         5.23911631816399      -0.10013785895818      -1.12920228310533
H         6.36133022856378      -1.38617872370753      -0.59150654962984
B         2.20756994375630       2.15793468490685      -2.26543038071147
F         1.67995146304889       2.80288203128033      -1.08467054884426
F         1.10115020072226       1.75414729272797      -3.07545062375310
F         2.89492001394935       0.97108560508806      -1.82632323712247
F         3.06807313270898       3.00749870602849      -2.95197311324531
