23
C5H9F6N2P optimized with ForceField in AMS.
N         1.10994988707069      -0.01574315106869      -0.14795513678685
N        -1.11227898075174      -0.03736016542908      -0.12202552621615
C         0.00696610793198      -0.78582980158300      -0.06826239881000
C         0.67530473926500       1.25483697456849      -0.25712814764534
C        -0.70495219491498       1.24151163129710      -0.24124917972433
C         2.49806089700721      -0.45439645134145      -0.08236358756855
C        -2.49020905799707      -0.50342510110216      -0.03642242144235
H         0.01872299836059      -1.86310924032342       0.04215531211692
H         1.31265077383430       2.12709752536409      -0.32468011409046
H        -1.36060066331167       2.10083171824958      -0.29691901496863
H         2.55413184373130      -1.56102211189171      -0.00352436018623
H         3.03634516262750      -0.13151441938667      -0.99809864071605
H         2.98847577854483      -0.00616693649067       0.80735808042570
H        -2.97686031576906      -0.06599623191389       0.86068041396968
H        -3.04774421741348      -0.18998496688523      -0.94389661170811
H        -2.52346536598530      -1.61108001645172       0.04116780178829
P         0.64568153641735       1.80936807522021       3.67444521953963
F         1.81863500735847       1.33404668629479       4.83558148492798
F        -0.71521013812124       1.13837714980546       4.47908730340405
F         0.62481799636744       3.20318797065689       4.67792083055153
F        -0.44888625596365       2.58361860211234       2.60121048647902
F         1.85089599138172       2.34549693320149       2.57413842558379
F         0.73806246142979       0.25556738749725       2.94930711527647
