22
C6H14ClN optimized with DFTB in AMS.
N         0.50510285111500      -0.07148015371150       0.04523613738355
C        -0.23211072379238       0.91732110816168      -0.79553948842212
C        -0.48893899946767      -1.16896400215849       0.26910532732399
C        -1.66997450602427       0.89068745147829      -0.27437436748226
C        -1.81774699338614      -0.45133347856189       0.46514434868184
C         0.90524197623867       0.54170738704120       1.34225193867927
C         1.72064650709795      -0.58969384289173      -0.63379932519165
H        -0.18229328115197       0.57672462654043      -1.83243722118361
H         0.24484769041190       1.89459407099529      -0.71424213350625
H        -0.15362800259336      -1.77210943711381       1.11795307003176
H        -0.50224869366122      -1.78642969760912      -0.63174837843475
H        -2.37102514287365       0.96886730909386      -1.10713450282226
H        -1.85263273120037       1.72838389532288       0.40156967511440
H        -2.01840399014848      -0.28594800205714       1.52553641988288
H        -2.63468525156145      -1.04708144106347       0.05529736626698
H         1.60523300852572       1.35138490767378       1.14475541404632
H         0.02260578188389       0.92566161311933       1.84774625495424
H         1.38021655558842      -0.23929537462987       1.94274698808775
H         1.43649819793595      -1.03240851716605      -1.58645834991308
H         2.41306523406955       0.23459993798145      -0.79337538961166
H         2.16054885516859      -1.34581647533219       0.02365490198335
Cl        1.85595065732532      -2.42929630511292       1.99045001253133
