63
C17H36F2N2O4S2 optimized with ADF in AMS.
N         0.06421707875253       1.71738823337149       0.16169845324247
C        -0.59369460817045       2.47519487758462      -0.98265238236387
C         0.37616379691149       2.70112207774225       1.28289037621823
C        -0.81788238061291       0.60951840209095       0.69759215527941
C         1.37536604854246       1.16966314946571      -0.38596103731660
C        -1.82799975334188       3.24648268695978      -0.55116317115776
C        -0.83435494908428       3.50475069981357       1.73407825251578
C        -1.49160897005187       4.23503378728804       0.56462182723412
C        -1.19279239405763      -0.47423007900704      -0.29999646369083
C         2.16159759916907       0.24862421948630       0.52831006227866
C        -2.00836148650339      -1.57442447379454       0.38699426983809
C         3.54812256664811       0.02171066416813      -0.08796242426203
C        -2.41817359449125      -2.68844777688206      -0.57559377921506
C         4.42242182281735      -0.90719661009131       0.74862983919910
C        -3.23692268653053      -3.78991739173623       0.09667209284300
C         5.81186111255963      -1.10257088901267       0.14281862069170
C        -3.64438515313434      -4.89876558281001      -0.87067289608895
C         6.69637149397519      -2.02973906307205       0.97204422647959
H         0.17786037884671       3.15889215748008      -1.36886063012269
H        -0.80909098905373       1.73743513802278      -1.76627491739640
H         0.80098691045852       2.11363181678716       2.10766702722205
H         1.15663060509161       3.37170613947926       0.89399688595442
H        -0.26886233730159       0.17674808247686       1.54721344743575
H        -1.72396265358092       1.08393860414973       1.09536651210432
H         1.13287303877015       0.67497312799712      -1.33761408003940
H         1.98182684306115       2.05668312713898      -0.62001485570318
H        -2.19831925924555       3.77855976746801      -1.44293175822053
H        -2.63630830548896       2.56173062364872      -0.23719838665325
H        -1.56692215644697       2.86357331030391       2.25434935842055
H        -0.46574688993402       4.22658677615918       2.48233425657340
H        -2.39941543561755       4.75966928086299       0.90245998832990
H        -0.79262494209176       4.99419115662936       0.17290522244694
H        -1.79026970668921      -0.05295725600437      -1.12522190042027
H        -0.29000720949627      -0.92354676265386      -0.74514361980189
H         1.65310263790233      -0.72243214581152       0.66593804410001
H         2.29388507401221       0.70199365740352       1.52531449453901
H        -2.91509585817984      -1.13484951249344       0.84305523759577
H        -1.41871714837085      -2.00776643325040       1.21587968062798
H         4.04564763162091       0.99899984186171      -0.21301689248303
H         3.43644202330002      -0.38949121008732      -1.10714543893782
H        -3.00271490533908      -2.25577269209348      -1.40900097448325
H        -1.51141339015660      -3.13162142115051      -1.02852704148386
H         4.52647007449780      -0.49538786240950       1.77085456601046
H         3.92758207687072      -1.89208603144618       0.85559712097703
H        -2.65025287328672      -4.21960601910119       0.92901595910596
H        -4.14018544246098      -3.34261015618410       0.55085485476037
H         5.70434185709497      -1.50236229668031      -0.88159253041936
H         6.29661798249290      -0.11557051288403       0.03743838246932
H        -4.23390584320420      -5.67881257549784      -0.36497764717105
H        -2.75830870574099      -5.38115375727387      -1.31358617788808
H        -4.25487035748580      -4.49794271774613      -1.69538957686773
H         6.84629596486004      -1.62780819989747       1.98698155477037
H         6.23966077363711      -3.02801792787445       1.07087104210803
H         7.68888632093302      -2.15858119976812       0.51324346273846
N         3.46924664676061       3.50038743191748      -1.33630904057300
S         3.12948802164175       4.93115690013686      -0.70806103796566
S         3.21520152838197       3.13103254956864      -2.88653623642172
F         1.45998254693521       5.09148352610887      -0.97473852936818
F         4.10049309635308       4.21740369910160      -3.73246037662802
O         3.19463693524591       4.78672584168663       0.73766152638973
O         3.68263415599852       6.08555458373725      -1.37998530384889
O         1.84482406041660       3.35239392351511      -3.32582343553363
O         3.84267516389043       1.84490637440134      -3.11743331827403
