24
C6H12F3NO2 optimized with ForceField in AMS.
N        -0.00910674377218      -0.00381059333979      -0.00378581993062
C        -0.92273358891521      -1.11828189011755       0.33201282777981
C         0.63929895794811       0.49053120655721       1.23065044492171
C        -0.77872526864065       1.09388385156574      -0.63009953845320
C         1.02614257264882      -0.48133497480174      -0.94723542188236
H        -0.36845238211930      -1.96055498763669       0.80397196849336
H        -1.71180530027762      -0.78684279975709       1.04393478419989
H        -1.42722184576674      -1.50953445179751      -0.57989959824991
H         1.33680039594607       1.32766152950006       1.00617498278159
H        -0.11649076709279       0.86204995829354       1.95853784089481
H         1.22183591456971      -0.31827651231179       1.72578567737497
H        -0.11405114682117       1.94658007408423      -0.89562037197690
H        -1.28056958252213       0.74842114957652      -1.56179892811801
H        -1.56446688412928       1.47503671703008       0.06028840718370
H         1.72800911505333       0.33908465206483      -1.21880453938513
H         1.62331654016699      -1.30767194675341      -0.50015784245552
H         0.56517664461737      -0.86183091638527      -1.88640820314787
C         4.07382577754428       1.63826618007284       3.27959556871522
O         4.19934452285051       1.99643617736048       4.43996797275389
O         3.53889435917922       0.56925069583490       3.03348636250828
C         4.57347460720574       2.50052343007203       2.15900260448976
F         5.48812128369070       1.79165006947615       1.40262519942769
F         5.18535101717810       3.63812152350690       2.65615530279985
F         3.51329952875811       2.87539538450531       1.35558738467501
