27
C7H11F3N2O3S optimized with ADF in AMS.
N         0.12909884035531      -0.11097677423829      -0.27732889830627
N         2.23402915656084       0.24310700453392      -0.65381323429489
C        -1.16792458578304      -0.80382925084084      -0.23521814434943
C         1.19453724652947      -0.53907553325504      -0.96554816582544
C         0.50959472555747       0.94715898291007       0.52587475935938
C         1.83333267808697       1.17095663213283       0.28678463536938
C        -1.27252559131836      -1.70861981130355       0.98239939156261
C         3.60358120697111       0.00178742495860      -1.09930801821775
H        -1.95066967663364      -0.02914832022929      -0.25608781423073
H        -1.24192081650460      -1.38029400000225      -1.16863183642046
H         1.27520362117046      -1.42885179990123      -1.59263100397361
H        -0.18615294576300       1.45084548350223       1.18445546809590
H         2.51482250491051       1.90618888565542       0.69580023082111
H        -0.43536664090551      -2.42257147114506       0.99754665158309
H        -2.22405982247471      -2.25839532407621       0.94360200908034
H        -1.24608570602410      -1.12371867489592       1.91352941603309
H         3.57466068238373      -0.71282104451860      -1.92881737793355
H         4.05375326492954       0.95093300738004      -1.41553306596631
H         4.16504121415730      -0.45397253820958      -0.27415781441953
S         2.33852004715165      -3.53881877635218      -0.24186076373152
O         1.95528481139594      -2.49144856029313       0.73603622911118
O         2.49278296930754      -3.01286553767100      -1.62630069029528
O         1.64535986558878      -4.81919423733476      -0.12101366273164
C         4.11202865586344      -3.93006656738380       0.24293598684135
F         4.17455772878849      -4.43228458418177       1.50137585406801
F         4.89749557966274      -2.80425125638567       0.21241368257362
F         4.66604031623567      -4.83230114215495      -0.60345471420268
