35
C9H18F3NO3S optimized with ForceField in AMS.
N         0.00083824955502      -0.00379991632770       0.00451085546058
C         0.91154024850924      -0.85686667799869      -0.81915185914684
C         0.91019581137102       0.84962782126200       0.83019472957114
C         2.31844442777568      -0.30961657484676      -0.68807374248879
C         2.32482138197332       0.32557701632666       0.67405901329012
C        -0.83472888045481      -0.86091033057650       0.90651891002617
C        -0.83320220090559       0.85234061326277      -0.90047334514599
C        -1.82042590836984      -1.78953388835365       0.17356904353612
C        -1.82853858087130       1.77448313316657      -0.17216109421527
H         0.62034952038786      -0.90304298312072      -1.89371482674970
H         0.94322299696320      -1.91080117730577      -0.45843950420218
H         0.63198173701313       0.87521467315676       1.90882473788916
H         0.92179377584537       1.90965079122044       0.48651429821935
H         2.49138371602601       0.46238080698995      -1.46934383328588
H         3.08730898383363      -1.10881287024179      -0.77194741316971
H         2.53096507506096      -0.44454074592025       1.45023329297476
H         3.07962727616008       1.13904339121735       0.74544152387090
H        -0.17542487442073      -1.49682483094357       1.54117698299902
H        -1.41527497569398      -0.23556911971587       1.61936207209733
H        -0.17301967885364       1.49266889150100      -1.52978864313181
H        -1.40740676768624       0.22634968291389      -1.61796402357236
H        -2.28863872059330      -2.47476428817592       0.91128588873358
H        -2.63533867542805      -1.21138610629258      -0.30672035982469
H        -1.31145271692735      -2.40898111378402      -0.59236829058929
H        -2.29615774344837       2.45807386817856      -0.91188415789588
H        -2.64375200596863       1.19127094744680       0.30150421718648
H        -1.32829400069592       2.39553711587838       0.59810540869531
S         7.28461302442927       1.69050746561098      -1.74324705962789
O         7.63676928440228       0.92348627901676      -0.46011008175459
O         7.30878118333870       0.59794042673587      -2.82237415659431
O         8.55963330072554       2.49659986288456      -2.03141814530106
C         5.75802653008534       2.66353644065333      -1.66540230496726
F         5.86460848380506       3.60967189807053      -0.66454260057739
F         4.69621206597682       1.82537213297510      -1.39473025170758
F         5.55030656248019       3.29334963513552      -2.87722015430154
