40
C10H22F6NP optimized with ADF in AMS.
N        -0.01473927750729       0.44545487108944      -0.42323036322815
C        -1.01784957316686      -0.68320921912195      -0.40954102554787
C        -0.78816815114655       1.58897349834268       0.20492262451083
C         1.21662476705985       0.14447290183922       0.41288050804087
C        -2.35936329631737      -0.03218670321145      -0.75388550443254
C        -2.20763432383269       1.45953796845085      -0.34699026949500
C         0.35284528861868       0.80691588334521      -1.83330368270020
C         2.10848846559914      -0.95222230274170      -0.13122805783404
C         3.29326199183840      -1.15308760435709       0.81960626585902
C         4.34674431922183      -2.09607209346830       0.24225198619856
C         5.50164699705662      -2.33766025295684       1.21118567348859
H        -1.01406145633019      -1.08481111137997       0.61445979260374
H        -0.69482001079801      -1.46748589623566      -1.10495751248350
H        -0.26024721967258       2.52485175896823      -0.01837789805111
H        -0.75721989419255       1.41217471750369       1.28996333101047
H         0.82873216839541      -0.11694662797932       1.41080181475986
H         1.77422799464153       1.08814204176192       0.48360161206585
H        -3.17263085939770      -0.53362111102557      -0.21018891788896
H        -2.58235953727330      -0.12696232369608      -1.82637512782923
H        -2.36075903710976       2.12081158315163      -1.21150020228187
H        -2.93842928526294       1.75681971353526       0.41837315294157
H         0.79413636318688      -0.07092166885850      -2.31694283472011
H        -0.55725296608502       1.10880652078713      -2.36434604253375
H         1.08158138170115       1.62597720247208      -1.79643021472901
H         1.55862474747239      -1.90318770938040      -0.25197194515625
H         2.51041836159689      -0.64895716199274      -1.10963301360831
H         2.93262155319116      -1.54457925634342       1.78935244204360
H         3.75400201534962      -0.16943458731965       1.01403407393947
H         4.73410130477096      -1.65507858459835      -0.69321964431926
H         3.87668704810486      -3.05904881411021      -0.02937062896802
H         5.98470475060680      -1.38669415115463       1.48418892075757
H         6.26795777785749      -2.99158108520216       0.76885615938512
H         5.14562067600011      -2.81323816588677       2.13907632257116
P         3.50409446894046       3.16213867912953      -0.60965614182349
F         3.29776391313565       1.67949884532358      -1.38185325267900
F         3.33705759798135       3.91680942418161      -2.05670723567349
F         1.81274954848218       3.22372002036052      -0.41692356723187
F         3.63514023912056       4.58896857217350       0.17401965470424
F         3.57871109100253       2.34124489675381       0.84206708275589
F         5.12160347086034       3.03815170545087      -0.79218328982135
