47
C13H26F3NO3S optimized with ForceField in AMS.
N        -0.72157951222497       0.32387199192409      -0.15668743407891
C        -1.29003560493953      -0.44430333530038      -1.31223548947831
C        -1.84955043290882       0.74664334559031       0.73693790970067
C         0.26332235904800      -0.49566820849429       0.63308875856801
C        -0.07970914723709       1.55522747572850      -0.73483342797159
C        -2.14650856759697      -1.65348617380646      -0.90117504138757
C        -2.75372546317466      -0.41443115834958       1.19933106461150
C        -3.28609473487320      -1.21439914343382       0.01337865369868
C         1.53875450085683      -0.93045211231685      -0.12787456113970
C         0.65668061303470       2.46896273638568       0.27609525667797
C         2.45936995654631      -1.74517207899509       0.78950061317729
C         1.23126454448038       3.69850952280582      -0.42371912219801
C         3.72067822120412      -2.18558652028532       0.05480799936000
H        -0.49551691595601      -0.78684163910115      -2.00702819204057
H        -1.94393648339369       0.21903123266388      -1.92598426461009
H        -2.49963010847161       1.48954170986349       0.21949089550481
H        -1.46704626742205       1.24173954983779       1.65523137946141
H        -0.20924548524713      -1.41894121907555       1.01994903481764
H         0.57187168541047       0.05499394852767       1.54869474313491
H        -0.85012600741380       2.17822224990431      -1.24625155247434
H         0.63794212411819       1.27756319773228      -1.53894674276358
H        -1.53163780971787      -2.43671455868120      -0.41206622397958
H        -2.57989480255200      -2.11383352450016      -1.81543293969433
H        -3.61566300917707       0.00508395924676       1.76207333814514
H        -2.21380005320939      -1.08375871657188       1.90090397026169
H        -4.00374109287177      -0.58914274876892      -0.56223728379186
H        -3.83061856070594      -2.10954809289610       0.38364283468509
H         2.10508892917188      -0.04701804230245      -0.48626984613102
H         1.27453730762312      -1.56549420304277      -0.99730847800912
H        -0.03421673646973       2.82363473584360       1.06685292113333
H         1.50205181656995       1.93419631044762       0.75429922956214
H         1.92333907851370      -2.64880946952879       1.15341167510158
H         2.75236167344412      -1.13109677216012       1.66897576494151
H         1.76387652521427       4.33315999450679       0.31578077932193
H         1.95184117438996       3.39310485014054      -1.21216432259711
H         0.41673130028561       4.29802878022197      -0.88315189189547
H         4.28827374960258      -1.29818041285161      -0.29757652857922
H         3.45925573826842      -2.82308793241634      -0.81645328563655
H         4.36399237266150      -2.77259714557756       0.74364554319226
S         7.85379224492987      -1.62662642489161       1.20869856936172
O         6.92408355633582      -1.97703037138536       0.03869640117511
O         8.38446743285242      -2.99802037062894       1.65193317963463
O         6.87699300133666      -1.24701019099582       2.33188078600644
C         9.12307243284843      -0.39000569617483       0.82685582947747
F         8.51639278329936       0.81423384055377       0.52523201847117
F         9.86629248837534      -0.81516560476742      -0.25757523218606
F         9.95296326744127      -0.22750711232452       1.91936421295889
