58
C16H22F18NP optimized with ADF in AMS.
N        -0.29967788788594      -0.08524774259719       0.62844738539424
C        -1.32243073107685       1.03321622106117       0.54788503534956
C        -0.92530902518952      -1.37562007913074       0.10782040166967
C         0.86991209201843       0.30931746073107      -0.26104355138663
C        -2.62734249818494       0.70927216938307       1.25586658150303
C        -2.22361520071287      -1.72272292499771       0.81049689869745
C        -3.23745681201045      -0.58588701983448       0.72170711162713
C         0.18308333014704      -0.25307588063283       2.03850277914970
C         2.03314198130616      -0.66392843288248      -0.28980871918341
C         3.11825575225961      -0.16023382328904      -1.24692325748979
C         4.30340322537283      -1.12172488422198      -1.29881227747833
H        -1.50318952271643       1.19316513782181      -0.52742992797281
H        -0.83979840852665       1.93298613981334       0.95909429255295
H        -0.18520504015343      -2.16864304079744       0.24843887615057
H        -1.08859853505739      -1.20451808498700      -0.96882077704072
H         1.19548977546675       1.29931639527955       0.10009432273690
H         0.44514450125939       0.43927627406010      -1.26953915699141
H        -3.30444373445226       1.56435736758722       1.09253453666847
H        -2.47108277019388       0.64257607399011       2.34498964250224
H        -2.02177958768405      -2.00344369684226       1.85535538629119
H        -2.60439767400578      -2.63848254708898       0.33044430977135
H        -4.14895648199749      -0.83653769194791       1.28588705146969
H        -3.53769045073795      -0.43764194980804      -0.33225138590520
H        -0.66759409869122      -0.42473644894695       2.70132226582274
H         0.84065552735014      -1.12523931159272       2.08864777358535
H         0.71383293421842       0.66309192289072       2.32866002002079
H         1.70321961502354      -1.66138474677990      -0.61357935698456
H         2.47020674239609      -0.78636191989839       0.71259302082837
H         3.46117730847169       0.84042995694319      -0.92580035995078
H         2.69138374415454      -0.03774116200180      -2.25912957505838
H         3.98531937929116      -2.11825986009337      -1.64064378937483
H         4.75263100367369      -1.24585740288106      -0.30206496789261
H         5.08113739081107      -0.75350150332076      -1.98402873092532
P         0.97289276744544      -4.70750135235212       2.37731113489247
F        -0.66650670370251      -4.75068199229332       2.05322716870786
F         0.87616914675817      -6.09260492701290       3.26917588367469
F         1.13969462973543      -3.24417952516671       1.49062596402992
C         1.11671778438816      -5.73205332767477       0.66720785872047
C         0.47065326477140      -3.54624904520503       3.93117741825647
C         2.93818875603599      -4.70398603898195       2.79690657960789
C         0.60898531893973      -5.07260696122091      -0.66262689157003
C         0.07574353888435      -4.20486105653436       5.28399636546832
C         3.88921683383946      -3.70998458588247       2.06985113570396
F         0.36803685987730      -6.87725529463598       0.80685331048348
F         2.39214686560425      -6.13012446549357       0.32902007414466
F        -0.66374703898781      -2.80580406654030       3.59179091762079
F         1.42822725754927      -2.59211447456760       4.21198640241503
F         3.45900236510373      -5.95418036362021       2.57060697283884
F         3.13399235146889      -4.46485821061547       4.14111435699604
F         0.59415270195498      -6.01212197612759      -1.64497889727562
F         1.44494928910353      -4.07752330260188      -1.07706716092147
F        -0.64193571926803      -4.55108055068683      -0.58699661538752
F        -0.30276158538028      -3.22698110314481       6.16572405224650
F        -0.97958610511718      -5.03398565254655       5.11785792551581
F         1.09102964638462      -4.88704150990922       5.84856401717112
F         5.17970935714105      -3.95644763553731       2.42442957245008
F         3.62097099930622      -2.41736604440526       2.41139094551822
F         3.80815550672040      -3.81203819153120       0.72283718633543
