22
C6H14ClN optimized with ForceField in AMS.
N         0.59110753963985       0.00532443541838      -0.03231579518638
C        -0.31521984267948       1.08391609574472      -0.51198080282880
C        -0.28414883855557      -1.09567529488784       0.45647946717214
C        -1.72136195415242       0.74405633262881      -0.05295060290992
C        -1.71472456204624      -0.75800954483069       0.07369614600196
C         1.45200522303898       0.50607640494471       1.06581160075876
C         1.45523424375796      -0.47108879439246      -1.13840003677674
H        -0.32984495515120       1.15031636954908      -1.62562890807582
H        -0.02697681014853       2.09432674094437      -0.13867354878576
H        -0.24437493230456      -1.19846209609787       1.56600170004534
H        -0.00626564892244      -2.09200924384697       0.04014892161652
H        -2.48745859880048       1.08955720562011      -0.78123529855619
H        -1.91463207310094       1.20440262024523       0.94137379627480
H        -2.44110598030219      -1.10618526439195       0.84033263691033
H        -1.95959084396414      -1.21873507620325      -0.90893059810725
H         2.13183035109606       1.30977451016497       0.70427003201131
H         0.83665756307704       0.92534601755897       1.89319567019220
H         2.07837719157190      -0.31373340852273       1.48359017109228
H         0.84351961948423      -0.90219826218539      -1.96242041501899
H         2.05705725551421       0.36585322695013      -1.55866472550763
H         2.15708290519309      -1.25952198108350      -0.78504785948808
Cl       -1.50200901514515      -1.00085470772682       4.40657785686589
