30
C8H8F6N2O4S2 optimized with DFTB in AMS.
N        -0.62187336249682       1.49528316100973       0.16227240850061
C         0.45170886327806       2.06963640828544      -0.40479217010917
C        -0.48672317090117       0.50722163525618       1.06468290970109
C        -1.93680667018771       2.09327485688854      -0.05902413794074
C         1.72526294196772       1.60874464932038      -0.11631744820313
C         0.75946883363416       0.02454485291301       1.39098298194205
C         1.88904671052436       0.58285340854001       0.79711847202307
H         0.26747438951031       2.86512755724488      -1.11569089195891
H        -1.39592349364967       0.12647482681338       1.51376889399069
H        -2.70697988333838       1.32858489186179       0.01642794027265
H        -2.08287927378866       2.85504625941463       0.70964949653561
H        -1.95963906960940       2.56933402221980      -1.03667369746568
H         2.57544140955978       2.09093771694304      -0.58157589709348
H         0.84781317688856      -0.76545520842952       2.12507592783177
H         2.87764030041010       0.22737743887988       1.05975409808920
N         0.15228537474779       3.93293673195052       1.14315286365447
S         0.61644165736578       3.94083573849721       2.68194565135230
S        -0.23196227089109       5.29847129555317       0.39418733470566
C        -0.96224139290029       4.18494645592890       3.66268174715634
C         1.38858828786978       5.97562671555641      -0.24587578913706
O         0.97936239269220       2.57047073576727       2.96589003006784
O         1.51937198233870       4.99127967706557       3.06323749828429
O        -0.84739087332690       6.31726403984414       1.19824618907897
O        -0.89927871154929       4.86775249498510      -0.81894116912648
F        -0.88179785430912       3.50890210789573       4.79679569424243
F        -1.97228828915004       3.67899062441518       2.94854082358731
F        -1.20770263185721       5.44699942587447       3.92537930124546
F         1.16390000437970       6.84296758545672      -1.21594722932124
F         2.07013738328601       4.94285488261986      -0.75028515442157
F         2.10861487250273       6.54588655872864       0.69295755601563
