61
C17H24F18NP optimized with ADF in AMS.
N         2.35680284960753       0.36462321093311      -0.95520740969976
C         2.71702013377089      -1.03099247161943      -1.44820807944322
C         3.26210219758237       1.30214294322731      -1.76583649602340
C         0.89913897218737       0.69546047703636      -1.21560937758731
C         4.21084022747077      -0.96984188503862      -1.71504484289924
C         4.44439252450918       0.45361663657449      -2.25902837683286
C         2.68630069313447       0.49006457497006       0.49579298924276
C        -0.09655992902867      -0.22292919862305      -0.53101410895953
C        -1.50790286681244       0.08417605251237      -1.04151692965581
C        -2.56860746508915      -0.82200644248391      -0.42282066943204
C        -3.96613833030695      -0.54804079276437      -0.97563092097036
C        -5.03165200429018      -1.45499673168788      -0.36668522452242
H         2.16264890917636      -1.18460754892936      -2.38142089222510
H         2.41224259096778      -1.76501918968077      -0.69199352429790
H         3.54090355750452       2.13712042065845      -1.10956037954506
H         2.66574699177607       1.67672004978740      -2.60438906041821
H         0.78065987817163       0.63909575942009      -2.30522532798551
H         0.76186196111313       1.74411606302131      -0.90544547168935
H         4.49120666592837      -1.73879801263335      -2.44893250166602
H         4.79016083377934      -1.15405870492501      -0.79629141458437
H         5.40884872235645       0.86402864242142      -1.92949886102064
H         4.43549485906000       0.44393556708153      -3.35683479908428
H         2.10744242955807      -0.24675898564856       1.06424914754160
H         3.75896524229467       0.30964344714508       0.63362310208154
H         2.43413685955678       1.50510190956637       0.82797078076716
H         0.13655467233823      -1.27585299718746      -0.76501974993505
H        -0.06928237888668      -0.10706892732821       0.56663166359256
H        -1.52209432118124      -0.02984028099601      -2.13909288934815
H        -1.75587359866052       1.14141760798918      -0.83289244639556
H        -2.57549253950441      -0.69558750033193       0.67693661760360
H        -2.30280246239971      -1.87865280710937      -0.61632787884310
H        -4.22611604491402       0.51064348976014      -0.79238822260104
H        -3.94681537141638      -0.67714640877343      -2.07292401998596
H        -5.08704897028338      -1.32125345232104       0.72595602823744
H        -6.02778923824224      -1.24290220529246      -0.78268653442572
H        -4.80392119452553      -2.51509902804136      -0.56385758852750
P         1.58446168402590      -0.18936511491446      -5.71767405234412
F         0.45877099312017      -1.34687947717179      -5.30459809661753
F         1.94536215845947       0.13180903949686      -4.07825426941000
F         1.30223678946376      -0.46408969407216      -7.31575516947317
C         2.86107846103539      -1.69335535304629      -5.55956259745001
C         0.01278269345738       1.09693591292873      -5.50294737223410
C         2.83746450125915       1.29587674914746      -6.28277275794250
C         2.87133251489322      -2.79633304323253      -6.66192113974208
C         0.04354331989897       2.60058972996864      -5.05197308642518
C         4.29007809005298       1.17169531579501      -6.84988823466872
F         2.59397853311236      -2.38683354511513      -4.38278712552116
F         4.16869985434225      -1.26918068627260      -5.42991259517955
F        -0.77951352555298       0.55220235000449      -4.49172921244813
F        -0.73475733236876       1.08372344324720      -6.65171635618962
F         2.97756537303449       2.20493061215778      -5.23941293343110
F         2.15492320655378       1.93605832448646      -7.29180499443431
F         3.74701927998403      -3.77997730786214      -6.29278213841244
F         3.27856644641713      -2.31427930975024      -7.85433949383158
F         1.65573809520994      -3.36310078929690      -6.80847880924365
F        -1.23911233635640       3.01228664808161      -4.83632703336179
F         0.70525646955229       2.74536613538533      -3.86163583054764
F         0.58209676939259       3.44595990442289      -5.94531582073774
F         5.20717981511398       0.99401997592789      -5.86080980853717
F         4.62222655822134       2.33526477897936      -7.47579719759077
F         4.40027344867511       0.17443687351544      -7.74898804378809
