62
C16H36F2N2O4S2 optimized with ForceField in AMS.
N         0.00330601849087      -0.00016160610367      -0.00320870850180
C         0.84567291584698      -1.03102571955332       0.70253321042899
C        -0.87485470967610       0.67684521683506       1.01651380579861
C        -0.81516883954846      -0.69347672699442      -1.06127713179782
C         0.85854281869838       1.04566037543275      -0.66913361775795
C         1.89145274834689      -0.48268059060024       1.70876895425984
C        -1.93999930392524       1.65589985643074       0.45792329855017
C        -1.89437540984557      -1.67902308598470      -0.54540250627672
C         1.94814638431277       0.51530977367143      -1.63746625186924
C         2.66480086699789      -1.63482702534946       2.36458329199555
C        -2.75368070794279       2.27397062198926       1.60354752528817
C        -2.64001602462331      -2.33316574284141      -1.71565748323338
C         2.73681971031709       1.67917782382711      -2.25276086850906
C         3.69615886267579      -1.11423260371962       3.36235999107927
C        -3.79879692114746       3.25359653219250       1.07666708588484
C        -3.69157471895544      -3.32069195017534      -1.21582975448981
C         3.80077224155823       1.17544839890384      -3.22459670095713
H         1.37519403041107      -1.67404507343634      -0.03532921841716
H         0.19664844288756      -1.72156173344812       1.28261401819069
H        -0.25373277551352       1.27108764576882       1.72011089007423
H        -1.39342219705978      -0.07895097817592       1.64629719453855
H        -0.15344549360750      -1.28626937439969      -1.72842180733774
H        -1.31152092680707       0.05225259172986      -1.72171036443750
H         1.34996043299791       1.69114754432399       0.09259089870725
H         0.22331441750001       1.73112554178711      -1.26987658189694
H         1.39266302208933       0.09150154327830       2.51521107237507
H         2.62267351855773       0.17874597192102       1.20188935615049
H        -2.64259930454409       1.13638064511481      -0.22413655764427
H        -1.45422561167298       2.48302903384396      -0.09772398749639
H        -2.63952295540296      -1.14974974895490       0.07787414439911
H        -1.43159602875280      -2.48603631897791       0.05726254259060
H         1.48529529400305      -0.05518063159391      -2.46768248025713
H         2.66402899522958      -0.14557527186414      -1.10849867873605
H         3.18840074904704      -2.22895925524921       1.58415536309603
H         1.95705425335761      -2.30485204737510       2.90032956349305
H        -2.07359345541283       2.81764722253512       2.29550666583626
H        -3.26865249975754       1.47170190183548       2.17625929434213
H        -1.91931303774700      -2.87691802893236      -2.36486304472605
H        -3.14214084252396      -1.55083730903841      -2.32573688853320
H         3.23285284834792       2.26458893148195      -1.44813833185386
H         2.04378861283706       2.35380277411038      -2.80178259319790
H         3.19677573926904      -0.53253330393196       4.16645031897850
H         4.43848596335220      -0.46752236964399       2.84791113616297
H         4.23107601242851      -1.97054089203703       3.82466352675728
H        -4.51722197984005       2.72979347537289       0.41090869553350
H        -3.30817038236423       4.07612835177160       0.51344442735479
H        -4.35886814581464       3.69315499203825       1.92885116560189
H        -4.43971175731733      -2.79990867056118      -0.58083304099277
H        -3.21068590258241      -4.13028399244871      -0.62614460408595
H        -4.21579544828287      -3.77648752176682      -2.08202525820063
H         3.32876287809955       0.60255079843111      -4.05129446069228
H         4.52906053584103       0.52446991461548      -2.69573815151414
H         4.34626508425033       2.03954800735288      -3.65912354848457
N        -4.38914838567670      -0.78923740549843       4.72792314506851
S        -5.99051591081237      -1.06275839291695       4.92229528719756
S        -3.46608173062069      -1.78454140626165       3.81567168331351
F        -6.20563521688706      -2.31852202317530       6.00801155321026
F        -3.89843346404842      -1.61061865325344       2.20975739025739
O        -6.65104477546864       0.17555754671672       5.45722413008353
O        -6.61345730795642      -1.44255098761183       3.60804056063029
O        -3.69319829366670      -3.21232234828549       4.22621921759489
O        -2.01661077204647      -1.43157925665146       3.99083468917366
