61
C17H36F3NO3S optimized with ForceField in AMS.
N         0.00128970084775       0.00103657582714      -0.00090259295329
C         0.84592672450565      -1.02804071214964       0.70254514231121
C        -0.87073667478946       0.68187737934028       1.02032382967575
C        -0.82278316748747      -0.69464776488359      -1.05165687561249
C         0.85254419366195       1.04464790046640      -0.67415648959461
C         1.89356849234688      -0.48024788402702       1.70580455268369
C        -1.93685447838542       1.65987138169190       0.46311266249794
C        -1.88909177785797      -1.69259753800513      -0.53086896285787
C         1.93764364205063       0.51479182634324      -1.64672544359425
C         2.65972997865327      -1.63747606002161       2.36025394222628
C        -2.73719087080337       2.28501300327464       1.61318976409953
C        -2.63634089186283      -2.33575256935864      -1.70652371111978
C         2.71487817875683       1.68391438625888      -2.26575876490284
C         3.69803715282279      -1.12699150840304       3.35464732402674
C        -3.79014997886900       3.25766763370074       1.09315415727773
C        -3.68835084350483      -3.32863081471336      -1.22166197142506
C         3.78234784113766       1.19063024858963      -3.23781534144771
H         1.37338356448095      -1.67123539156169      -0.03657516897045
H         0.19831777152639      -1.71742537705345       1.28525071562766
H        -0.24499948853089       1.27924747527552       1.71717923751196
H        -1.38651786203311      -0.07105817418513       1.65694296008293
H        -0.16272610969517      -1.28040402564936      -1.72638454406447
H        -1.32951533158533       0.04928983499736      -1.70588821866958
H         1.34773622458395       1.69212877329056       0.08335495070673
H         0.21382776573470       1.72734360223620      -1.27420785424058
H         1.39848817829991       0.09668962435040       2.51269675542101
H         2.62631497421242       0.17801115582088       1.19682931689048
H        -2.64614624629553       1.13636627918155      -0.20928347591680
H        -1.45498680290264       2.48386049081258      -0.10115275116600
H        -2.63136852308035      -1.18190843654626       0.11523433261112
H        -1.41134648089154      -2.50610906068701       0.05145509112000
H         1.47376120102561      -0.05847303689808      -2.47454980231918
H         2.65889640017420      -0.14243001426866      -1.12030442357410
H         3.17525501664969      -2.23631847476853       1.57820335370308
H         1.94759361522111      -2.30097286437512       2.89837621489354
H        -2.04912328029511       2.83516174638067       2.29209072818307
H        -3.24348126352114       1.48600472401966       2.19716415227283
H        -1.91446360532363      -2.87293713759126      -2.36017340375732
H        -3.13702752687568      -1.54733758063167      -2.30958095900796
H         3.20569866893192       2.27546126983715      -1.46256162955584
H         2.01410877720497       2.35047059076490      -2.81492401677763
H         3.20542675250847      -0.54642479238078       4.16356085763646
H         4.44170504916092      -0.48291445540317       2.83918674129164
H         4.22913683727706      -1.98931448759488       3.80998761009858
H        -4.51250160830021       2.73051629953283       0.43469998632060
H        -3.30480609011807       4.07591565788259       0.52288530258690
H        -4.34266452607690       3.69930256662507       1.94909916520734
H        -4.44107472451506      -2.81402559219523      -0.58748737660232
H        -3.21001606318160      -4.14371197133215      -0.63775005570715
H        -4.20588922057676      -3.77576923841020      -2.09640534037721
H         3.31471756199918       0.61768468189423      -4.06678465600431
H         4.51504450832660       0.54362221368305      -2.71042121948404
H         4.32112359008316       2.06091708297884      -3.66823310231367
S        -1.67169712534075       7.37215815962028      -0.57557476654124
O        -2.91939453922898       6.58630442720354      -0.14954109786374
O        -0.82929166192176       7.41179394002488       0.70776265431171
O        -2.19381316931529       8.81127758135496      -0.69440466272643
C        -0.81811449309483       6.73508226769760      -2.04464743760186
F        -1.68045133506895       6.75476156228237      -3.12371268576740
F        -0.40228805806121       5.43819911892589      -1.81175809076192
F         0.27947832320620       7.52777947912830      -2.31924912999738
