26
C6H14BF4N optimized with ADF in AMS.
N         0.87633957857176       0.07386894524608       0.02092389666115
C        -0.26642810150907       1.06100762449953      -0.04774808294741
C         0.22162227932727      -1.15937028974411       0.62898950981748
C        -1.48538196501497       0.23871242696961      -0.46505391255136
C        -1.17117631526285      -1.21018535086276       0.00009362175729
C         2.00061894070699       0.58415764356031       0.86851434785046
C         1.39157074624900      -0.24162012535821      -1.35570198617450
H         0.00315047924962       1.87754225615775      -0.73213288968126
H        -0.38328084517142       1.46514243691382       0.96897074159373
H         0.18295621919031      -0.97576359113297       1.71225010866003
H         0.86612114699754      -2.02867505230677       0.43571229989820
H        -1.63906131379006       0.28106232079415      -1.55355771228964
H        -2.39345815765122       0.64427875327978       0.00450547236215
H        -1.90140366092927      -1.57397190155105       0.73758227446305
H        -1.19466887521644      -1.90961458862985      -0.84835504789045
H         2.37905262751719       1.50956949157371       0.41401475744312
H         1.60940234962790       0.78168536990702       1.87476684682894
H         2.78581475261116      -0.18411620597672       0.90122991428794
H         0.56042532410851      -0.60583390759811      -1.97047740641875
H         1.80931959996490       0.68048006793807      -1.78118668844870
H         2.16792038429583      -1.01287892016776      -1.25862996661324
B         3.44408012200501      -2.72671276750880       0.41905858429316
F         4.37619895020705      -3.74515391694739       0.57655287366282
F         2.37140515124063      -3.12928661634363      -0.46094862041084
F         4.04148287428639      -1.54933854583230      -0.15773233802275
F         2.85560760918822      -2.34375932167938       1.66869511526939
