42
C10H22F2N2O4S2 optimized with ADF in AMS.
N         0.98720847374955       0.09129540921745       0.12799121810655
C         0.77982558193586       1.57341447463423      -0.16504285486598
C        -0.07166866498716      -0.72305693160459      -0.58297432604520
C         2.36492435624500      -0.27986841699463      -0.41540041448666
C        -0.63364526124137       2.04815548227602       0.12017160754694
C        -1.48822354106169      -0.27154119248365      -0.26715994281407
C        -1.67877126370808       1.20557928848600      -0.60815094055696
C         0.94836757640487      -0.14032926175586       1.60794425487765
C         2.85104625485489      -1.67161610032811      -0.05428919580782
C         4.15061913858880      -1.98006464862326      -0.80532460116473
C         4.72357316968584      -3.33776597117300      -0.41040953393168
H         1.03865997091900       1.70649134594764      -1.22607231087886
H         1.52979916383397       2.11203789182559       0.42738421842149
H         0.09269686984625      -1.77457632454230      -0.31209235043756
H         0.13545771857175      -0.60184408985739      -1.65819389240216
H         3.05117900522129       0.48435430303770      -0.03044650195593
H         2.29337120977734      -0.14993143846747      -1.50626834217552
H        -0.67860175815493       3.10213609624502      -0.19937898862538
H        -0.83345039632861       2.05335913701095       1.20530265314400
H        -1.72670770512254      -0.45905811284720       0.79385675704400
H        -2.17278634443169      -0.90605899222420      -0.85456534994836
H        -2.69657885751477       1.53296865112071      -0.34360325919038
H        -1.56780180741441       1.34351835627247      -1.69947940978302
H         0.02294753033926       0.27763116556216       2.01521021387439
H         0.98269104605457      -1.21883445664529       1.79925340629360
H         1.81896320898274       0.36365191930812       2.04750876864626
H         2.10491928977970      -2.44669843781248      -0.30362550855027
H         3.05273177822152      -1.73379535071755       1.02799562503687
H         4.88316712439609      -1.18419198665419      -0.59189230246091
H         3.95788337262740      -1.95384270594264      -1.89280839168970
H         4.00935119958060      -4.15026243352691      -0.62153267265468
H         4.95950443409135      -3.36465477153374       0.66540170915038
H         5.65117531723886      -3.55163863209380      -0.96168887298051
N         4.99237509930838       3.52002285470823       0.74360548757934
S         4.86836125885688       2.18856777057690       1.61151637058348
S         3.95418105511295       3.81789100896497      -0.44420696039608
F         5.42231993141473       0.99526158891827       0.57445160174538
F         2.56313751199681       4.25767327243354       0.38595817286866
O         5.84257179236832       2.21145198860706       2.67645119529329
O         3.50022743167629       1.73652110074810       1.88656237637873
O         3.51024423758789       2.65440011545671      -1.20534626956270
O         4.35755003209649       5.02868296697040      -1.11959421822587
