28
C8H18ClN optimized with ForceField in AMS.
N        -0.00705257619794      -0.00627386513788      -0.02807568987399
C         0.86574611781248      -0.85916293630601      -0.89208786952637
C         0.93977778796325       0.84557957711410       0.75532497426868
C         2.28208286238224      -0.32359487679026      -0.81312551784086
C         2.34382114571094       0.31184937116315       0.54645750430107
C        -0.80175357651680      -0.86099913729210       0.91308622559141
C        -0.87992301159924       0.84983093415469      -0.89576395922877
C        -1.81700656213028      -1.79528823893412       0.23025539325356
C        -1.83445409595753       1.78126720786116      -0.12679196265386
H         0.53425986352032      -0.89343423623224      -1.95533507619148
H         0.90404076095454      -1.91530585169239      -0.53985562788312
H         0.70588699995557       0.87663846327244       1.84421726082343
H         0.94413522464431       1.90296270819850       0.40456280297492
H         2.44021175383478       0.44734703790719      -1.59971082628249
H         3.03855207092382      -1.13125090063879      -0.92125434692038
H         2.57344286344929      -0.45984707782639       1.31435312031840
H         3.10682460623504       1.11968025889801       0.58675906489319
H        -0.11471184056059      -1.49303696701504       1.52185249045228
H        -1.35321184190808      -0.23290501543844       1.64660926277122
H        -0.24759148394751       1.48378672106735      -1.55922672023187
H        -1.49112915942055       0.22328836374037      -1.58173884068327
H        -2.26319715941153      -2.46553098421091       0.99513042082267
H        -2.64547051144738      -1.22024505509534      -0.22982958888267
H        -1.33747635484134      -2.43113256074126      -0.54099711422263
H        -2.33289576985347       2.46286784742314      -0.84812813595937
H        -2.62909535235554       1.20439898488947       0.38779143573843
H        -1.29483948900695       2.40521372376853       0.61393517148087
Cl        2.94652830106817       1.05658265159309       4.22797114259100
