52
C16H16F18NP optimized with ForceField in AMS.
N         1.78379619664388      -0.04791709634138      -0.35151466720689
C        -0.62462397011095       0.01163177806780       0.18544140728220
C        -2.04299147698296      -0.02655954822296      -0.39605156924697
C         0.43082206521544      -0.07094257179069      -0.92439723277087
C        -3.09653067338782       0.03713175432668       0.71583648144359
C        -4.50915540130984       0.00698354288264       0.13951048411474
C         2.52363867415183      -1.19817007040194      -0.29364673403205
C         2.29961326117729       1.13042506321159       0.11632739117367
C         3.80823484946077      -1.18889113272298       0.25578438522354
C         3.58070018542147       1.17423484836113       0.67163577580469
C         4.33444200547316       0.00457681624909       0.74618441478969
H        -0.48522971312226      -0.84484635022923       0.88115759841332
H        -0.48810463186429       0.95505393318867       0.75766126250892
H        -2.17884010188466      -0.96604310542835      -0.97602565419928
H        -2.18112498954568       0.83682721818560      -1.08379767459650
H         0.26855077291980      -1.00395059891597      -1.50962472468886
H         0.31011407851362       0.77972214734464      -1.63150178249707
H        -2.96778872794722       0.97300857948373       1.30225048136652
H        -2.97006019402647      -0.82867683016085       1.40194533169085
H        -4.67256994998806       0.88050299695124      -0.52709708596328
H        -5.24923075094060       0.04823057018822       0.96635786777572
H        -4.67171431031384      -0.92929920923555      -0.43590067732889
H         2.12118284238167      -2.13373357588614      -0.66318399025137
H         1.72001382231068       2.04440328977355       0.06186704886863
H         4.38889846966312      -2.10100778682907       0.30320201674707
H         3.98445797874936       2.10801969563970       1.04087143680437
H         5.32709636203340       0.02424935555457       1.17725107281875
P         7.78966565207684       0.56543487570126      -2.43820522634282
F         6.54782506871587       0.59004575007007      -1.24630243733535
F         8.05246485678293      -1.09450791765361      -2.81932161598401
F         7.31974133312202       2.17866153823092      -2.06740627636265
C         6.29321517568937       0.11237724291290      -3.57200034915768
C         8.69248625257034       0.01838824503204      -0.81452658321228
C         9.19342544939325       1.44673898417059      -3.40499398626038
C         5.26007152939103       1.23504222650190      -3.81440370417141
C        10.16017016078824      -0.47089879041045      -0.93908084469332
C         8.79739429112132       2.33677477027890      -4.59611648780422
F         5.59346754759623      -0.94534694238288      -3.00192835943213
F         6.75064940042353      -0.32850092339593      -4.80307141522154
F         7.98635332232522      -1.02226760597455      -0.21828051654722
F         8.69146238457321       1.08669293294935       0.06926657832880
F        10.06192791690734       0.48010450669857      -3.87984055139757
F         9.88804243401414       2.26480285258184      -2.53124459566944
F         4.24102271781824       0.73918266677507      -4.60823838751858
F         5.81576329354046       2.31074105177006      -4.46865284093336
F         4.70157920273994       1.67070057969148      -2.62657975454226
F        10.53773642695164      -1.04324829986308       0.26333537082992
F        10.31383418067763      -1.42725600200394      -1.92448855499002
F        11.03013863365593       0.57200397995709      -1.18092565675613
F         8.09564614377403       1.63166685805909      -5.55002158016955
F         9.95056133873747       2.81186178276436      -5.19515613147747
F         8.06640765182296       3.43262168339524      -4.17605949272356
