38
C12H19F3N2O2 optimized with ForceField in AMS.
N         0.37025881767103      -1.61700354969173       0.32037387129805
N        -1.75370164334119      -0.96384964723661       0.27103534872289
C         1.77030620895412      -1.72359008545469       0.72465740878509
C         2.64570088666876      -0.73849353801095      -0.06214952099153
C        -2.99130936360820      -0.26980970076450       0.62019692016381
C        -0.61273330930698      -0.98088172988104       0.98668673311879
C         2.23341269539984       0.71882525277282       0.19505591670990
C        -0.16794127907968      -2.02284004060387      -0.84738002210035
C        -1.48805819518815      -1.62039518137067      -0.87659567008934
C        -3.21132367795306       0.95309234124584      -0.28014784886969
C         3.17422435655041       1.69821229228615      -0.49680269770303
C        -2.07324287849986       1.96703576505712      -0.16321752880220
H         1.86847254436535      -1.51916247158860       1.81353076107597
H         2.12513949953016      -2.76141262995684       0.54576627791215
H         2.57137052296219      -0.96358093478793      -1.14856503525525
H         3.70379669509640      -0.88444169359476       0.24671482491725
H        -2.95923047780831       0.05602246579052       1.68332186011722
H        -3.84698702693728      -0.96971658842809       0.50816352150729
H        -0.48282706612815      -0.48661105961933       1.94239220482053
H         1.20696162306210       0.89147009405183      -0.19018052982569
H         2.23870798181398       0.92604172955197       1.28713429325022
H         0.36770562322557      -2.54475761174007      -1.63002989979162
H        -2.19190203796391      -1.76640563211042      -1.68604336247673
H        -3.30776122876476       0.62955155864487      -1.33889553753377
H        -4.16259382580922       1.44665216302768       0.01328833990240
H         3.19699643159680       1.50819862775702      -1.59095553363649
H         4.19784204828585       1.60142734976359      -0.08184478538906
H         2.82049479895024       2.73649090116256      -0.32292535956240
H        -1.13312047101000       1.54150213699523      -0.57159112614825
H        -1.91475495260708       2.25523073969814       0.89761919089778
H        -2.32371443780342       2.87747402430299      -0.74662063696381
C         7.84932533561757      -0.68235286683313       0.71442766397923
O         6.75967860342166      -1.19337743664623       0.91963989571144
O         8.86197673429988      -1.25162333283525       1.08859507265318
C         7.95149165770181       0.63682365711681       0.00948115134542
F         8.54424844021446       1.56303248260619       0.84750860051813
F         6.69712814040816       1.09350190251252      -0.35147630713197
F         8.72165249511291       0.49390578091088      -1.12967284883557
