53
C15H30F3NO3S optimized with ADF in AMS.
N        -0.22879123692327       1.44252232290429      -0.04849355696041
C         0.15640530571148       2.53421247059891       0.92073476308005
C        -0.88198993931368       2.22169657942818      -1.17837246063269
C         1.00293041028526       0.73878576646920      -0.59656044053484
C        -1.19250100410340       0.46965305686291       0.58400531944602
C         0.67761596088965       3.67245352580940       0.04262987991428
C        -0.01761363618632       3.47209661023181      -1.33132850015633
C         1.76553288356978      -0.13045439505862       0.38493591227719
C        -1.64632095291090      -0.65021691585838      -0.33475173448389
C         2.92399981919432      -0.80022550191096      -0.36547547982253
C        -2.68874674894063      -1.51638885343249       0.37497754690564
C         3.69312145267566      -1.79948057167644       0.49426682393856
C        -3.18668521806434      -2.66516777778732      -0.50067774939786
C         4.76454167906797      -2.53560249739458      -0.30740118305072
C        -4.23717860526268      -3.51998384851467       0.20319699302083
H         0.87605774498246       2.13878134354024       1.64841305113616
H        -0.76700708656706       2.82022625884765       1.44686948279895
H        -1.89698491840658       2.46628905686742      -0.82805355890747
H        -0.92098977888812       1.58796667591029      -2.08051886399615
H         1.64963037537835       1.52677589122959      -1.00338458082735
H         0.66354400454903       0.12353385666107      -1.44241299393989
H        -2.05188281096809       1.07767456480651       0.91210006863312
H        -0.69745112204870       0.07433840749924       1.48453694687952
H         1.77147320253948       3.62198646509914      -0.05764648777508
H         0.43811316076372       4.64329215014585       0.49917565357246
H        -0.64296803995803       4.33121344869902      -1.61154394022639
H         0.71862310844022       3.33053615081482      -2.13546297149383
H         1.11272699816155      -0.92447069428380       0.78646348252211
H         2.15596945666731       0.44475139862760       1.24409085221360
H        -0.79446534609788      -1.27328108912932      -0.65105925839658
H        -2.07147786092702      -0.23688615979642      -1.26454802942844
H         3.61573901459624      -0.02604583188805      -0.74574810573850
H         2.51270747605908      -1.31066425124927      -1.25283763770513
H        -3.54999369058999      -0.89074128917198       0.67883345059756
H        -2.25881952399233      -1.92938489858367       1.30783892247044
H         2.98158451566976      -2.53296568961579       0.91660727844706
H         4.15487218781969      -1.27913121394868       1.35408957979672
H        -2.32698279615317      -3.29015721089475      -0.79974241349966
H        -3.60283261901247      -2.25074980950832      -1.43598716491321
H         5.31565463207013      -3.25421739906736       0.31760358386701
H         4.30906914296669      -3.08884779023141      -1.14388351381903
H         5.49278699845826      -1.82802573403286      -0.73524456909362
H        -4.58296666506788      -4.34183977199665      -0.44150123047964
H        -3.83179860962051      -3.96454011879873       1.12696505666800
H        -5.11692022150439      -2.91655067989870       0.48040466485762
S         0.22196051975194      -0.63465498578853      -3.99726827482969
O        -0.73010012497471       0.45263154337771      -3.65924716081400
O        -0.10605841469937      -1.43665779999003      -5.17140070953261
O         0.71219657585360      -1.37640549913973      -2.81113995536363
C         1.74248104644350       0.33581277784127      -4.53467737856725
F         2.15804503449743       1.20237307306125      -3.54438260435752
F         1.48907774516227       1.08588314602240      -5.63606775679037
F         2.78983109955671      -0.48125568700829      -4.81077978250861
