49
C15H32ClN optimized with ADF in AMS.
N        -1.13218696368131       1.02535629219812      -0.29671154695179
C        -1.63755974666941       1.95257300498966       0.80686215585258
C        -2.24839996055536       0.75697913535885      -1.27991776793700
C        -0.02484146391691       1.74193927848283      -1.06671442506421
C        -0.62719714463046      -0.25715236664358       0.34413746559882
C        -2.90936029518593       1.44691273130403       1.46462653184385
C        -3.49122968071943       0.18346216625687      -0.62162709373006
C        -4.01365849752731       1.12984211736057       0.45957566768178
C         1.21601846364119       2.11338394859122      -0.26305386745426
C        -0.19008932065271      -1.33888274915311      -0.62398603901744
C         2.39602801662387       1.15243962324184      -0.40780109346986
C         0.50423237899873      -2.46424741941597       0.14797762349974
C         3.56534400260085       1.56986868601823       0.48179051032607
C         0.97573427657714      -3.59712642106111      -0.75948679525905
C         4.75355255716364       0.62085647402438       0.36434993361295
C         1.68221415648667      -4.70804528565278       0.01234810628022
H        -1.80265882905764       2.92709063094946       0.31784419456437
H        -0.82547427794231       2.00852609534164       1.56729143824608
H        -1.84489495528651       0.09398720679309      -2.05856150761850
H        -2.48188843375202       1.73033006175720      -1.74267518164350
H        -0.51962735824662       2.63896913720681      -1.46995980985685
H         0.22124238501244       1.08952956823859      -1.91978263665727
H        -1.44687698219762      -0.62789187655161       0.97214118937651
H         0.15881277275446       0.05974935140382       1.06511632245283
H        -3.22912553463119       2.23407367776200       2.16756264494870
H        -2.67629213572739       0.57134419248221       2.09340554167668
H        -3.27554795828593      -0.81077798519982      -0.19480994705058
H        -4.24495063030574       0.02989033549495      -1.41180724388826
H        -4.35552443739689       2.06618646853493      -0.02058153442551
H        -4.88625848526658       0.68875467203460       0.96736058190670
H         1.52959199323444       3.12039068030516      -0.59186455788700
H         0.98421219467449       2.18763087988806       0.81925977730626
H        -1.05152998385987      -1.76239286860321      -1.17357641236747
H         0.51378105257349      -0.94502225096172      -1.37708091165340
H         2.71861465759019       1.09547657497419      -1.46692634454224
H         2.09099485899000       0.13621632723596      -0.10580032712696
H         1.36300955576916      -2.04584459089287       0.70297251086614
H        -0.18345316827601      -2.86605978668724       0.91583251696973
H         3.19835777175998       1.59496797248848       1.52438547764042
H         3.87866382687357       2.59820454607820       0.22021050116295
H         1.65906707128266      -3.18569958024910      -1.52547141880053
H         0.10998694903774      -4.01530431413254      -1.30628883046390
H         5.58567742734573       0.94195439856038       1.00910398139363
H         4.46719964477302      -0.39865520911363       0.67194122174181
H         5.12754258093354       0.56860324027027      -0.67238852161730
H         2.01776195622642      -5.51233010064713      -0.65947162569631
H         2.56504539683956      -4.31667447728374       0.54260328268382
H         1.01174934509393      -5.15187394730500       0.76585510966453
Cl        0.74426498231425       1.16728599222758       2.98068990008209
