52
C14H18F18NP optimized with DFTB in AMS.
N        -0.91262181247420      -0.52399794209781       1.77595099934695
C        -0.72120768795097       0.76491587739267       1.03008702818185
C        -1.51912775751383      -1.54963663908873       0.86125141587427
C        -1.99986838225591       1.28102054199272       0.37844176951889
C        -2.81317328372246      -1.07001928112530       0.21991660989655
C         0.46178126547275      -0.97732696231183       2.20715168003103
C        -2.59828210297595       0.22785553685694      -0.55230312977649
C        -1.76497248529424      -0.30176957321508       2.97523863956549
C         0.50589380343138      -2.27682942159678       2.99519604039792
H         0.03334698983057       0.57839463490636       0.26051647265508
H        -0.32759123054076       1.49631690688983       1.74021862316169
H        -1.70519122612189      -2.44652408914984       1.44955026971998
H        -0.77312928755701      -1.77164497663007       0.09326298698433
H        -1.73617434671188       2.17841397952997      -0.18748449898852
H        -2.72983171344139       1.57120267720170       1.13843873641577
H        -3.58704281879069      -0.93471667837721       0.97875112184707
H        -3.15078172040339      -1.85973719832512      -0.45491856270689
H         1.05471655879524      -1.07869910056092       1.29402477017484
H         0.88070326799221      -0.16236850228583       2.80442041523186
H        -3.55084605833344       0.58670047612722      -0.94802299032374
H        -1.92123083880070       0.05365104420482      -1.39488375527387
H        -2.70801633469911       0.14770548755678       2.67867586781238
H        -1.96571990943678      -1.25582308074073       3.45107705216948
H        -1.24043643568504       0.35899092586837       3.66291493766940
H         1.55139196611480      -2.47771621802142       3.22878187360245
H        -0.04579070322807      -2.20548063992341       3.92960202405605
H         0.11655035115608      -3.11282144599390       2.41912814300506
P        -3.06710592305395      -4.72715426941442       3.68077274111858
F        -1.76830140125293      -5.43239758442972       4.44351458664663
F        -4.05354194497015      -6.03131271220051       3.94620030032129
F        -2.10669169226127      -3.30887326406028       3.39153409313212
C        -3.48723502686677      -4.04266825658532       5.47003299908154
C        -2.34563812369559      -5.56080491972253       2.00443397848513
C        -4.51672649585036      -3.76238662529036       2.63280161836250
C        -2.51710457762013      -3.01182050715411       6.11349001496304
C        -3.26221546852967      -6.26929794930830       0.95553772975609
C        -5.27706117290594      -2.46398257558442       3.02317986795801
F        -3.53804528271421      -5.08467363853524       6.31204011673724
F        -4.70607909599399      -3.46694130405827       5.48198352735822
F        -1.47495341451838      -6.51303393758343       2.37037766430213
F        -1.62486667565125      -4.64691091041633       1.30189341667497
F        -5.44777202599180      -4.64187364967564       2.23443719885477
F        -3.84061636667406      -3.37318035675032       1.50942195080148
F        -2.78941675214017      -2.85388620760238       7.40639609795991
F        -2.63769421539623      -1.80814308435043       5.53187174852365
F        -1.24089908530237      -3.37227626833669       6.00642228704647
F        -2.50849715514825      -7.08279594806835       0.20899494328875
F        -4.20585631637178      -7.00468370643692       1.52745660883296
F        -3.84463664588709      -5.40902375383318       0.12353728731089
F        -6.32754248275104      -2.67281203147470       3.79388868535301
F        -5.70775288513020      -1.84571000316742       1.91285842508958
F        -4.45062938127769      -1.59840780804404       3.63229779869203
