33
C9H10F6N2O4S2 optimized with ADF in AMS.
N         0.57456231656999      -0.71515731548139      -0.16580135280470
C         1.58078887415691      -0.02485925685351      -1.02242171624782
C         0.06195574364868      -0.07569452242987       0.90750435370303
C         0.21898134184605      -1.98689205961537      -0.44726927018277
C         2.76222856179424       0.51672606138845      -0.23881167346453
C        -0.87320959563152      -0.68896366493349       1.71303398515308
C        -0.71287816965460      -2.64581254458458       0.33505190023874
C        -1.27731023349486      -1.98957304968602       1.42095257358963
H         1.91991198454771      -0.77615855404192      -1.74703164389354
H         1.03864073917205       0.76925590979383      -1.56220664700007
H         0.43356261882393       0.92835025044742       1.09290717511741
H         0.71307821448188      -2.45300022084262      -1.29450916776012
H         2.47934655069489       1.31766023521343       0.45856922213978
H         3.47866980828608       0.94182660643049      -0.95734894857842
H         3.25116697234872      -0.29257885628202       0.31637276798854
H        -1.25889377048850      -0.15341781979853       2.57984581063870
H        -0.95993137003714      -3.68119688489948       0.10211241836478
H        -2.00407318643941      -2.49810406726106       2.05346248948511
N         2.06411471042080      -4.40314624143706       1.71556909967666
S         2.69565086416523      -2.96001157661618       1.45925258426469
S         1.82801221484648      -4.99925596909080       3.20945175865901
C         4.52419506827338      -2.97792565379527       2.01467563918737
C         0.04496765631784      -4.53020756247768       3.61195039324051
O         2.80581395218511      -2.80612707858747      -0.00128363327034
O         2.11605313529454      -1.83635731475741       2.20561463973567
O         2.60608629081255      -4.35204854869666       4.25666715920465
O         1.75680317026722      -6.44512438295105       3.09804176068311
F         5.21522714466935      -2.12638537277528       1.20595836860910
F         5.05751437866287      -4.20960280694991       1.89639339526365
F         4.65699174790986      -2.54971781439636       3.28114907268859
F        -0.33230323980033      -5.15673772348955       4.74755081659609
F        -0.81170993025622      -4.90625443132943       2.61671583395961
F        -0.09903612729378      -3.19182474921369       3.79829797891481
