55
C15H20F18NP optimized with ADF in AMS.
N         0.76460701034493       0.40452209165938      -1.02766349117449
C         0.70839221392285       0.91607505646087      -2.46039112918554
C        -0.38866987966957      -0.55684765945278      -0.80949175601328
C        -0.61826415380827       1.54409018269798      -2.83079878660695
C        -1.74326712556102       0.03214816957197      -1.17782273640566
C         0.67738983516082       1.54103467986760      -0.02904280795101
C         2.08121193954030      -0.34782922276891      -0.89194133544609
C        -1.76066772387295       0.55406938322583      -2.61384031766887
C         1.80894990649887       2.54613988630148      -0.10944465158554
C         2.39840036249925      -0.86029456014851       0.49637330391900
H         0.89889840194550       0.04223760333696      -3.09566287383340
H         1.55612882734587       1.59437937521839      -2.59325564627660
H        -0.35537386022059      -0.86984106592634       0.24355108576350
H        -0.16742433151103      -1.42794319805150      -1.44647653726238
H        -0.53129965198819       1.82075729065987      -3.89432320938851
H        -0.79565168447972       2.48155489409223      -2.27428806078959
H        -2.02370145492838       0.83149309947680      -0.47036835928238
H        -2.48680759743221      -0.77116388262548      -1.03966461203426
H        -0.28517686831385       2.03433416823853      -0.20745573496326
H         0.63006945205420       1.06934394096880       0.96346235815330
H         2.02306830977737      -1.16840226758493      -1.61995080364600
H         2.85944995544876       0.33450729842867      -1.25768926313366
H        -2.73306502614864       1.01908170241788      -2.84028124119580
H        -1.63676584679994      -0.29027241428934      -3.31611881761836
H         1.62669278405132       3.31990885582311       0.65186056230656
H         2.79082263596795       2.10161007286879       0.10067286314877
H         1.85666019010034       3.04980616249560      -1.08414163278134
H         3.34689192066452      -1.41498384118517       0.43080525865018
H         2.54660755496760      -0.05318560047385       1.22728593837085
H         1.64261395219398      -1.56046437030693       0.87922764739222
P         2.98445508622184       0.58794379869535      -5.99845191722994
F         2.92402563833605       1.98385843636158      -6.89250450610613
F         2.07446073676715       1.33934276844757      -4.78887825934899
F         3.88365900226358      -0.21070492633411      -7.13888729368640
C         1.31600210201830       0.02222717115456      -6.91161322943144
C         4.66528881933448       1.33185946938214      -5.23231896149572
C         2.98233498250067      -1.04353510495271      -4.79784529722832
C         0.92963534313896       0.74598982648699      -8.24242800135272
C         4.56545366166265       2.43385160218543      -4.13159010833961
C         3.73943904706834      -2.35816622216199      -5.15824258547836
F         0.19526270615773       0.18568755350924      -6.10386639764645
F         1.37890639223017      -1.31291219960906      -7.23755599514158
F         5.37092547216930       1.92623048674904      -6.25357703041158
F         5.50572047406964       0.37298596275281      -4.70468237328068
F         1.67179300065147      -1.45843037663644      -4.56030463161931
F         3.46540266306427      -0.68737062246141      -3.54539403573572
F        -0.13199176816627       0.09409598898632      -8.80681555645710
F         1.93610262435092       0.73735180691647      -9.14003105143986
F         0.53648751679501       2.02335111383501      -8.02089743335515
F         5.80837219196620       2.90210537878258      -3.83373503628777
F         3.80973687224428       3.48290374098995      -4.52038032443687
F         4.04370787769542       1.95378058391914      -2.95680311099149
F         3.22561274539710      -2.95125653364953      -6.25228408663511
F         3.60310300080839      -3.23965913873374      -4.11077033903117
F         5.05778605410429      -2.15913252641221      -5.34577431119394
