64
C18H26F18NP optimized with DFTB in AMS.
N         1.23215385908266       0.26544938054530      -0.36111679828826
C         2.16103606372977       0.30527137258946      -1.53777307770326
C         2.15082035359108      -0.09339089394585       0.77089018550854
C         0.61602174033740       1.61117936778003      -0.11808495956272
C         0.20486576175708      -0.80718775655100      -0.57580840542366
C         3.10230987772237      -0.87461533445620      -1.33770624559979
C         3.17168513013186      -1.06816827834633       0.18474802319208
C        -0.25246058863607       2.11199056647652      -1.26762250830267
C        -0.88272782140625      -0.87373234827212       0.49514327809592
C        -0.81286136835375       3.49417631801074      -0.90804584647326
C        -1.73756680947929      -2.12882935824625       0.27716639036259
C        -1.63451094948795       4.06953359346349      -2.05846864175869
C        -2.85641928195226      -2.21641811221264       1.31263541471079
H         2.70456865337286       1.24898126045051      -1.48266556967332
H         1.59268091875134       0.25932538584838      -2.46596873138371
H         1.57539829778707      -0.50945962623387       1.59684798431207
H         2.63740079296617       0.82615182386142       1.09780517962199
H         0.04334264506391       1.54757911588814       0.80940866952024
H         1.44402278117062       2.30203721311017       0.03591060180295
H        -0.24974450845762      -0.63154981783277      -1.55363286992313
H         0.74203748950823      -1.75751953515173      -0.61477077128791
H         2.71806399967749      -1.77135248302614      -1.82909362377424
H         4.08049840999307      -0.64595972700765      -1.76067462684375
H         4.16521800033363      -0.82975366849120       0.56740802564801
H         2.93682522441638      -2.09862821553221       0.45916953921996
H         0.34904504424292       2.19512633423389      -2.17665381620113
H        -1.07889202744455       1.42288652659050      -1.46557890294409
H        -0.44005485245954      -0.90825228608746       1.49406705511716
H        -1.52484183810249       0.00871662744331       0.43964894761846
H         0.01681416200834       4.16773313018413      -0.68174952466430
H        -1.43649930431979       3.41103357377697      -0.01180539195586
H        -2.16974329794162      -2.10248203922024      -0.72848277923120
H        -1.10254064235419      -3.01814068439925       0.34697967611845
H        -2.47216138351623       3.41386878563043      -2.30167200336763
H        -1.01390051846520       4.18748097839603      -2.94722708428208
H        -2.02649089002541       5.04643208136114      -1.77689793994507
H        -3.51075663221523      -1.34691471171964       1.24279819819453
H        -2.44209893099339      -2.26079487822546       2.32036599715134
H        -3.44994218653577      -3.11374108039719       1.14014132938109
P         4.46448751091520       4.00998267626678       0.12309113210255
F         4.94016717746338       3.79509860737439       1.70193591644322
F         5.26302773967955       5.45565649164484      -0.03849633604596
F         3.62883384829351       2.48705102604671       0.20207222727720
C         6.13610028339906       3.07107824849835      -0.29475458941256
C         2.88705138872253       4.97249979606563       0.89627036407229
C         3.69505690623496       4.14819101451800      -1.75357735504198
C         6.24970867965488       1.56624621799621       0.06940768861305
C         2.26444572761156       6.25470589006858       0.26092191466931
C         4.11649427307677       3.38383688803653      -3.03857795553153
F         7.12934188895449       3.69110100670614       0.35812963821235
F         6.41498050054769       3.16116383076776      -1.61004269044151
F         3.23276407729372       5.36469181374190       2.13146120635929
F         1.84520834801974       4.11383178849960       1.04902746480374
F         3.65087676452705       5.44356177372187      -2.10238791945274
F         2.39828191436901       3.74648691140884      -1.57158344116861
F         7.50486485807257       1.14144573845205      -0.05265244781239
F         5.49613174424739       0.81913530050212      -0.75365836878454
F         5.84958284109691       1.30518206446981       1.31056492178757
F         1.49106955356116       6.84826641931217       1.17606294844795
F         3.18107933254093       7.13045109594865      -0.12277410137324
F         1.47957421478265       5.97369217199348      -0.78003167646200
F         5.16801227110426       3.91421328673486      -3.63642976136129
F         3.10352166504438       3.39071867286943      -3.91398876300727
F         4.37309495988897       2.09447907836999      -2.76895822997936
