55
C17H36ClN optimized with ForceField in AMS.
N        -0.50372901455956       1.79296923973489      -0.20333996334033
C        -1.34929745190321       2.34478299807047      -1.31168993313241
C        -0.17612536128685       2.90400453101875       0.74898288496704
C        -1.20303930904674       0.68648337748583       0.53979778576710
C         0.77224692390599       1.31476598075866      -0.83904742285689
C        -2.62520280122603       3.05781343458107      -0.83471958062246
C        -1.40982615667452       3.66283426441434       1.27944629359030
C        -2.27903732287437       4.18093408853523       0.13756526575372
C        -1.51825738000646      -0.58676665526433      -0.28385200158002
C         1.78096258124473       0.61655764237202       0.10706202562414
C        -2.19947054220257      -1.64099912395715       0.59895815005696
C         3.05419803917768       0.23059010208744      -0.65879509178341
C        -2.50801435738711      -2.91702566161183      -0.19379879201052
C         4.05168496191586      -0.50167611619828       0.24744003579486
C        -3.22488232930654      -3.94870808013993       0.68570853012081
C         5.32637060760159      -0.86787184329418      -0.52351036119109
C        -3.50804241751822      -5.23364616774608      -0.08642250920165
C         6.32292628595434      -1.60228602510729       0.36867843186906
H        -0.76585070586443       3.08999941154661      -1.90266696657326
H        -1.63141006915023       1.55629971122828      -2.03978080175994
H         0.37015225213477       2.51945310209734       1.63675605597959
H         0.49151270226595       3.65199260486644       0.26233300764944
H        -0.60583273646384       0.38858439955276       1.42984927736638
H        -2.16386238738631       1.03913057258971       0.96242383984691
H         0.54906296662061       0.62211556131940      -1.68140569234398
H         1.30269846231246       2.17368172643598      -1.31297494956557
H        -3.14275558869255       3.49524463961653      -1.71567797328383
H        -3.33478692807255       2.34428855010048      -0.36987754561002
H        -2.01041103505076       3.02093067147002       1.95710791636594
H        -1.06403693043594       4.52857948244135       1.88477476899232
H        -3.21524943873417       4.61448326415173       0.55100249459913
H        -1.73601303493752       4.98635683597583      -0.40393523967321
H        -2.20288787763813      -0.34682638840373      -1.12283199110930
H        -0.58928008242133      -1.03080137041855      -0.69508373719001
H         1.34013924031003      -0.30773678756736       0.53343375578739
H         2.06881188502594       1.29115508135184       0.93874936475050
H        -3.14641168372959      -1.22354580971824       1.00648343077413
H        -1.53247951989282      -1.89427447042978       1.45266856675678
H         3.53196237671494       1.15091470330213      -1.06215265462511
H         2.78426964342066      -0.42901568176846      -1.51308756358988
H        -3.15331672647326      -2.66512411183352      -1.06414334361097
H        -1.55691852707773      -3.35223624678089      -0.57257616710829
H         4.31696802110436       0.15135198755934       1.10790659252918
H         3.57988227457926      -1.42956901439250       0.63962061467352
H        -2.59486206845628      -4.19209104600545       1.56896516623782
H        -4.18802241340374      -3.52667324231041       1.04724021438753
H         5.06873910205678      -1.52017469675751      -1.38630244292218
H         5.80684889888398       0.05584406451556      -0.91357777992418
H        -4.02802488935514      -5.95796083937683       0.57603149445066
H        -2.55808849310523      -5.69174481648266      -0.43598564832932
H        -4.15845143659312      -5.02330116876228      -0.96223560968333
H         6.61798270472706      -0.96235330565685       1.22763577946797
H         5.87826404979585      -2.54646524453599       0.74971875251547
H         7.23331959897978      -1.85062288770577      -0.21740688912170
Cl       -5.61740402940579       0.46144086234580       0.24923797856824
