35
C11H16F3NO3S optimized with ADF in AMS.
N         2.50222163198082      -0.30755748103787       0.35078074768915
C         0.01703755870236      -0.26287735467731       0.31526909670434
C        -1.22933913424519      -0.65717649982316      -0.47419557538923
C         1.28907721843094      -0.66089905796768      -0.42001469564473
C        -2.52060056854511      -0.27021249223718       0.24404948194281
C        -3.77110909593276      -0.66120161362073      -0.53814985405822
C         2.84453738490712      -1.09590570814455       1.39575077404313
C         3.29357391247275       0.71085878465683      -0.04588481797861
C         4.02447436386815      -0.86257613665782       2.08236044395031
C         4.47094485323851       0.98709133778039       0.61734252160118
C         4.84859599866194       0.18112661349021       1.68948647853412
H        -0.00556809242624      -0.75252898968196       1.30501118567748
H         0.02259042929249       0.82730164719745       0.49642837918021
H        -1.21845839144928      -1.74807311208448      -0.65432229700978
H        -1.20451585851391      -0.17581892077732      -1.46949738090765
H         1.36277802033044      -1.74621391071819      -0.59519410122233
H         1.36824029567412      -0.15451319539424      -1.39224656649721
H        -2.51898323039346       0.82049649071035       0.42681154654438
H        -2.53652848773561      -0.75281995523223       1.23852961994812
H        -3.78923330591379      -0.16966424801202      -1.52412047744231
H        -4.68696375889003      -0.37166438357526      -0.00055750647305
H        -3.80687861801976      -1.74961664264527      -0.70485864703369
H         2.15664692568782      -1.89412332229805       1.65011480591080
H         2.96079334001117       1.26256135585076      -0.92160481284409
H         4.30395394927691      -1.53382993248500       2.89214212695095
H         5.09999716669958       1.80399089638197       0.26741034220610
H         5.79633957709842       0.35407914495051       2.20053131438696
S         4.47547125221342      -3.31227257821623      -0.56594085822047
O         5.45629668215031      -2.53654522759633       0.21051701957788
O         3.06670016443185      -3.13432080611298      -0.10633342074330
O         4.82766673051095      -4.68208573950200      -0.92581902507699
C         4.45720409912862      -2.42632561052987      -2.23168243081119
F         5.60531103316228      -2.62960178987970      -2.91907426456665
F         4.31294054204029      -1.06205573321625      -2.07596441990150
F         3.42072529879387      -2.83923988729480      -3.01154954562692
