39
C11H19F3N2O3S optimized with ForceField in AMS.
N         0.36545350265789      -1.61455372746934       0.32857792965068
N        -1.75886429202183      -0.96208249398377       0.27906599632791
C         1.76554758893228      -1.72018490869588       0.73313769940651
C         2.64323505138456      -0.74816692074896      -0.06689047085040
C        -2.99277410058390      -0.25909393448713       0.62422858431242
C        -0.61750319111379      -0.97792779089189       0.99370855650911
C         2.25264266311443       0.71532779329448       0.18810255750311
C        -0.17370791055311      -2.02246937848558      -0.83827807579266
C        -1.49316451455771      -1.62036482994181      -0.86767007983635
C        -3.21586894941560       0.94900716073617      -0.29524021598467
C         3.20361081088623       1.67672507943609      -0.51712392364493
C        -2.05345338496750       1.94058063706860      -0.23864348381594
H         1.86629259833497      -1.50204067171151       1.81926580196958
H         2.11705169989288      -2.76135004624936       0.56746457208852
H         2.55580502418753      -0.97599773974145      -1.15177987600997
H         3.70226917794221      -0.90524433755239       0.23280384183446
H        -2.95226041765848       0.08676301714769       1.68101756944767
H        -3.85120367046331      -0.95850922366285       0.53209753209384
H        -0.48732214516406      -0.48229488362445       1.94844848391801
H         1.22430184947823       0.90066406398178      -0.18830033175105
H         2.27093086714152       0.92676076176741       1.27941288228800
H         0.36039370492690      -2.54187797181358      -1.62311084497351
H        -2.19336280385833      -1.76319874251416      -1.68033450225046
H        -3.35227786097521       0.60513106002941      -1.34322269171510
H        -4.14712187033870       1.46772039280138       0.01839500310040
H         3.19698110904782       1.49281575502800      -1.61256158507958
H         4.23649012253471       1.55251192498276      -0.12816928107081
H         2.87798938641560       2.72214609237404      -0.33116616409180
H        -1.15347348649059       1.50815183546803      -0.72363194006630
H        -1.80910740021470       2.19643666856365       0.81271799224252
H        -2.32851528337332       2.87063579801293      -0.77877424782089
S        -2.76905618947382       3.84298427291892       4.42174522978934
O        -2.65585515651842       2.44315218725596       5.04290605700667
O        -2.47054164141718       3.59164398836547       2.93761084880576
O        -1.49961060181058       4.55091612596680       4.91705983455944
C        -4.32324425074216       4.71675292547759       4.75347764340752
F        -4.45997744523743       4.91261115269574       6.11409261432569
F        -5.38315202754572       3.96322494700739       4.28711822185693
F        -4.30943295488228       5.93961056649382       4.11069863981033
