39
C9H20F2N2O4S2 optimized with ForceField in AMS.
C         2.64206230430274       0.31158194088617       1.63874453042819
C         1.63158094594305       1.26147023357337       1.01798217925640
H         1.34431474099623      -0.87776486474374      -0.87359056051166
H         0.37718955609999      -1.70406288715660       0.39110205018586
H         3.17651328767132      -1.37939941540741       0.38208475682071
H         2.17158722220540      -1.79308909880751       1.83071926463351
H         2.50213113085525       0.27484554458573       2.74136962064503
H         3.68374052204608       0.63077832413400       1.41899391106760
H         1.34593823944474       2.06390297947449       1.73647242325560
H         2.13088940987852       1.75754286978423       0.15188627418090
H        -1.26825013430042      -0.44657744779294       1.48218057246485
C        -0.47444222598105       0.29619831381880       1.71223922272007
H         0.04720138551042      -0.07214310331148       2.62314950128111
H        -0.96160178483630       1.26480451139940       1.96303606089983
C        -0.18210554839602       1.14997490530062      -0.58705090222698
H        -0.30789652276602       2.22953734162270      -0.33770425065141
H         0.48366378331622       1.13086076804640      -1.47999265855200
H        -2.31280508075952       0.74149825077278      -0.17373211382536
H        -2.96791927497938      -2.08665396049459      -2.66215088351212
C        -1.61917146858268      -0.76628659602452      -1.59188012822432
H        -0.80091454833912      -0.89636696322591      -2.33276165198484
H        -1.49766471031188      -1.50979177175886      -0.78050348631055
C        -2.95512976098092      -1.04494254467684      -2.27787278180664
H        -3.10289670063565      -0.35059394961985      -3.13230920114841
N         0.46758901443833       0.45674612992280       0.57298736210724
C         1.06369349918303      -0.85075794547641       0.20374326793031
C         2.33660352782824      -1.04101224591414       1.02803969559507
H        -3.79242944778494      -0.92108772668757      -1.55761253081870
C        -1.58807208318847       0.65341002374102      -1.00981698219149
H        -1.94538768962153       1.35484419931819      -1.79632774718286
N         8.14564908059666       1.26707839768777      -0.70275802859565
S         6.90119046734102       2.32150297978309      -0.57455662426467
S         8.27039865046406       0.25468002148381      -1.98223259157732
F         5.47394702818542       1.47331404768838      -0.36473836703081
F         8.70262604347991       1.13067686357398      -3.34171581014102
O         7.12561087380844       3.22451861780303       0.60457038513665
O         6.79673493616192       3.14212300611363      -1.82905303676325
O         6.95026994319889      -0.41721848385470      -2.23604306564941
O         9.32138923230799      -0.78136142216131      -1.70296410953945
