26
C8H15ClN2 optimized with ADF in AMS.
N        -0.46915042898023      -0.55521395227238       0.42631195839189
N         1.70537540111806      -0.69061308570377       0.43452070907100
C        -1.80808591113492       0.01015152159409       0.58823568946089
C        -2.25988142997319       0.74613197628765      -0.67010301211287
C         0.65673265319403       0.01927349615402       0.90106155398374
C        -0.11763629122324      -1.55356705396438      -0.46916976071104
C         3.10393792373150      -0.29436792443157       0.60794836619290
C         1.23971296643914      -1.63858600569393      -0.46340259640096
C        -3.60698512513872       1.42811901854800      -0.46310248982066
C         3.66186662249662       0.32882884293723      -0.66215599324100
H        -1.75323199191081       0.71008377463622       1.43576176918667
H        -2.49416024393028      -0.80880074541350       0.86297958308416
H        -1.47491453719011       1.48564993619201      -0.91135777094696
H        -2.32005584578633       0.02973603091665      -1.50816907611391
H         0.69995136770909       0.75901817442317       1.68628190345771
H        -0.86038005420851      -2.11872172836561      -1.01701742824237
H         3.11595244641450       0.43734523260829       1.42803608342895
H         3.66881790102029      -1.18378493178897       0.92862575219059
H         1.91100130160151      -2.28928546175536      -1.00819494775662
H        -3.54359936912204       2.18648502766189       0.33306306276784
H        -4.39792416872800       0.70972604062227      -0.19154372151535
H        -3.91767979119433       1.94097943077800      -1.38471231479908
H         3.69427707866476      -0.40167749088504      -1.48446349675313
H         4.68620835496492       0.68213579441442      -0.47418274486968
H         3.02249792973081       1.18040186650806      -0.94778031956107
Cl        0.82383638313548       2.38528397289255      -0.19711782047166
