35
C11H16F3NO3S optimized with ForceField in AMS.
N         1.74353986177814      -0.01805726890733      -0.50023652646939
C        -0.63880989143740       0.06799756026105       0.09841696674387
C        -2.07652064442312       0.01489001232431      -0.43001616200426
C         0.37878872686220      -0.04387746136745      -1.04093353728424
C        -3.08300118798701       0.04822393624987       0.72565546099637
C        -4.51833626132633       0.02679749984616       0.20972930184040
C         2.36747382369094      -1.19112421944691      -0.17400444249565
C         2.36939383166142       1.18108648422188      -0.29409505642776
C         3.65460710032463      -1.18270034877881       0.36937665519800
C         3.65689234749569       1.22518616955570       0.24699414311280
C         4.30084446045136       0.03446236039323       0.57980595116737
H        -0.47391911566501      -0.76604845646406       0.81494439370613
H        -0.47965098738205       1.02757490404045       0.63750249361949
H        -2.22361462542794      -0.91853520441032      -1.01690071115126
H        -2.25213435460634       0.88487115106119      -1.10060812322057
H         0.20746926647100      -0.98671711202917      -1.60761968120053
H         0.23488017360109       0.79341669150228      -1.76002364519243
H        -2.93169984780151       0.96966046864552       1.32922112213622
H        -2.92523576066847      -0.83389350965003       1.38418424245115
H        -4.70938788492706       0.91063522905706      -0.43548377536507
H        -5.22156193597102       0.05579992387316       1.06864299062963
H        -4.70546999798524      -0.90092820776510      -0.37191150218843
H         1.86751936437037      -2.14020737247743      -0.32314597750675
H         1.87148049973679       2.11129633765685      -0.54120109560528
H         4.14382221788928      -2.11245057212100       0.62951680183848
H         4.14841559813791       2.17551757154129       0.41068986473625
H         5.29679541515910       0.05515960618193       1.00334556262061
S         0.51293080849645      -4.88482523096585      -1.64987844987626
O         0.51536262592683      -6.25706636321139      -2.33939920412340
O         0.92922058952501      -3.92777186116202      -2.77650945959125
O         1.76307951601032      -4.94106915340866      -0.75974249251027
C        -1.02941959570035      -4.45283654106377      -0.79450798376787
F        -1.30386783273582      -5.40147302510062       0.17137660715064
F        -2.06739290528957      -4.41033769783776      -1.70524538795001
F        -0.89387605255434      -3.21702306474426      -0.19537476471672
