40
C12H25NO2 optimized with ForceField in AMS.
N        -0.55712949773650       0.29402518021170       0.15263468156006
C        -1.55400753317126       1.23542637351506      -0.45104202434099
C        -0.88307691961605      -1.11605673864075      -0.22275791105055
C         0.78225347990583       0.67438107810190      -0.40858983460212
C        -3.02406060691232       0.87413011510029      -0.16590332381949
C        -2.33390057696774      -1.51730573188292       0.09598489040604
C        -3.31959613973649      -0.56540129202456      -0.57137255220307
C        -0.53812782362654       0.45849618367045       1.63249497744235
C         1.98353324926388      -0.16832441200124       0.08622903766298
C         3.29466332125792       0.35860645013331      -0.51115839374896
C         4.48434771765405      -0.49107517607116      -0.07293843026959
H        -1.43910357939173       1.26056072658126      -1.55995286100105
H        -1.37595043105233       2.27505056098778      -0.09207560044782
H        -0.22388662382424      -1.83223132187222       0.31415727313244
H        -0.71536062216569      -1.27320701198161      -1.31328899477669
H         0.99735378938950       1.74347421647822      -0.17557154608345
H         0.76311000425397       0.59792474836043      -1.52101199799124
H        -3.68078036688816       1.55257476280906      -0.75246810187026
H        -3.27806650703956       1.03276213324549       0.90239690061623
H        -2.50306272120135      -1.53409801526231       1.19367271613103
H        -2.51644978584187      -2.54709304623463      -0.28029600594845
H        -4.35551226151258      -0.83086547651800      -0.26886467876990
H        -3.24599887427111      -0.66555534157065      -1.67684343289877
H        -1.54600241260612       0.36841110595780       2.08101063292734
H         0.07776835704181      -0.32394190428110       2.12373252393745
H        -0.13802221515134       1.45613181952905       1.92037782972958
H         1.86160308720647      -1.22725916096781      -0.22307768020302
H         2.07058123678199      -0.11930655390200       1.19061833284317
H         3.46203977659996       1.40739925529256      -0.18228273321028
H         3.23456524592364       0.34786908018476      -1.61995120999667
H         4.35062302516394      -1.54319230348431      -0.40357860450792
H         4.59064384040272      -0.46415536786840       1.03252858688190
H         5.41456845246742      -0.09173047156384      -0.52912766496795
C         1.02649798850846      -1.81377012188306      -4.41253548688260
C         2.36262018478605      -1.18819401300923      -4.65930226547359
O         2.60866715487504      -0.68310430075830      -5.74252987819267
O         3.21206011324501      -1.18498307824155      -3.78317087136385
H         0.22729473630755      -1.05555550117700      -4.55011808275112
H         0.86813085128268      -2.64539385639303      -5.13107709483477
H         0.96575187959507      -2.21545782446944      -3.37835454926373
