33
C9H15F3N2O3S optimized with DFTB in AMS.
H        -0.03636725130526      -3.21220600361100      -2.59613032582842
H        -1.62541852699427      -2.68384849163800      -1.97164700508281
H        -0.60728749776381      -3.78429719360651      -1.00074072712330
C        -0.60424791307386      -2.94893324323997      -1.70465409125560
H         2.37341214398841      -0.18048613530519       0.48537199182999
H         2.05363730276766      -2.49585173839693      -1.00619627303770
H        -1.68180276347833      -0.59993300358162      -0.57604596316664
N         0.02363382924079      -1.81405198879192      -1.05134333675378
C        -0.62472569315025      -0.78645024010782      -0.51074278070596
N         0.27025426175630      -0.01745123734346       0.10717400320524
C         1.50363700810843      -0.60503295840859       0.01676740981962
C         1.34830505004515      -1.73808865416189      -0.71479363228023
C        -0.04745329561449       1.16097220716082       0.90610549203062
H         0.82500873680006       1.82047045845900       0.89100757093109
H        -0.88831362224768       1.67425061828942       0.42983202068976
C        -0.39749170949977       0.74191819725375       2.33673857901736
H         0.45574256578183       0.21382948756954       2.76974724100908
H        -1.23810285126913       0.04388349633431       2.30676844004198
C        -0.75400275593742       1.96137174207366       3.18844463801686
H         0.08966757508418       2.66087494371766       3.20071728959819
H        -1.61263597950969       2.47978942884757       2.74724392072750
C        -1.08894202563272       1.53885341287357       4.61714793112561
H        -0.23995994793616       1.02656972783255       5.07059727087991
H        -1.94411437789793       0.86219415148035       4.62237549648192
H        -1.33317085474120       2.41369149481950       5.22017224310881
S        -0.36301736209387      -2.90787097094691       1.91029229086521
O         0.02495391720703      -4.00238393110304       1.03683225497078
O        -1.50564700170505      -2.13685710964326       1.41844991976137
O         0.74164380826840      -2.08931407722684       2.37884265335068
C        -1.01766679676745      -3.72854103990230       3.43429581346552
F        -0.06734699493455      -4.42718891376126       4.04126487165354
F        -2.01535861549424      -4.55134800343279       3.13113344660895
F        -1.47513749510106      -2.81557294440240       4.28656032514489
