45
C11H20F6N2O4S2 optimized with ForceField in AMS.
N         0.26699234640120      -0.11765665050200      -0.19081581694301
C        -0.59917838761495       0.69397218299118      -1.10609129297431
C        -0.49397214908722      -1.33845715727885       0.23084880477515
C        -1.96011321679690       1.07885320660972      -0.50260482792878
C        -1.87174643848154      -1.03142961276202       0.85596131510184
C         0.68136539757338       0.65935141167510       1.02905258469573
C         1.45780389158141      -0.54728678311900      -1.00152718650482
C        -2.72344189494773      -0.16966696706220      -0.07285824773920
C         1.53204362710675       1.91369419867350       0.76532917359203
C         2.53698684000633      -1.34167761435304      -0.24268991832723
H        -0.81142886321402       0.11889543070221      -2.03839027925532
H        -0.08248198749093       1.61574389244364      -1.44558910808502
H         0.07914322534896      -1.92681091682274       0.97929614286176
H        -0.66219132729181      -2.00979635367447      -0.64202297236534
H        -2.55644469829413       1.61419769010186      -1.27273490969573
H        -1.83934860449188       1.77681230967891       0.35113142463475
H        -1.76005762895585      -0.53395081542581       1.84142070088549
H        -2.40426843011786      -1.98728890246676       1.04826953597434
H        -0.19762910285272       0.99860330657355       1.60925664285633
H         1.24017831893318       0.00658975599746       1.73422139094888
H         1.13123954921957      -1.18242061179113      -1.85731317788853
H         1.95199993997638       0.33213004132927      -1.47046207295536
H        -3.65962913700564       0.12648944986901       0.44726508489288
H        -3.00343838524341      -0.75723748456567      -0.97408828958300
H         1.77771364970589       2.38652684489388       1.73965486042085
H         2.49171635478685       1.66858997667583       0.26981593904944
H         0.97632315332899       2.66722104062714       0.17332643768588
H         3.33940844884286      -1.62351333902384      -0.95682051641000
H         3.01208086909045      -0.73470512751466       0.55337783474098
H         2.13350799968442      -2.28112226028052       0.18363669097566
N        -4.27706810346232      -5.39134972517480      -2.09401577668219
S        -3.13130700098849      -4.26787457010864      -2.42742612706333
S        -4.51897056488050      -5.99223376612069      -0.58739203159631
C        -1.63312053804364      -5.08620250493346      -2.93411450119210
C        -5.89035041021409      -5.14317492292125       0.16784614470202
O        -3.60917011498168      -3.39085328404484      -3.54956913027847
O        -2.85474795268062      -3.42598066611685      -1.21523261841198
O        -3.29092152239061      -5.81706458984884       0.26283346488458
O        -4.85388337629796      -7.45301694839451      -0.68929860102614
F        -0.67079549733206      -4.14243874496243      -3.24010629581413
F        -1.88681838112090      -5.86077706547127      -4.05012696742095
F        -1.17354175341384      -5.89347766301080      -1.91122027032482
F        -6.09288625836437      -5.63454083106300       1.44366919283414
F        -7.03017696875489      -5.34608608177032      -0.58687563979481
F        -5.62052581097406      -3.78947568785786       0.23554047174815
