55
C17H32F3NO2 optimized with ADF in AMS.
N        -1.37591414106821       1.06736563605710      -0.26909828121439
C        -2.09200176058312       2.20970560498886       0.45503061673661
C        -2.09780675401443       0.76608280364474      -1.56449784337877
C         0.02681756995396       1.51621580788610      -0.64048487674796
C        -1.33335029531399      -0.14039169209170       0.65198658873883
C        -3.57720505207250       1.95247876021133       0.64035709204825
C        -3.56921728205640       0.44813435204646      -1.36386810552007
C        -4.28088667561647       1.60860536858722      -0.66850163023901
C         0.97856187347431       1.73203735994781       0.52021767241785
C        -0.65900987598633      -1.37466795433325       0.08465167888534
C         2.28573637640737       2.35177668823508       0.02247739755789
C        -0.59495280543253      -2.45095086805737       1.17349420401253
C         3.26630501237584       2.59700386383352       1.16816231111028
C         0.04353137167125      -3.74735856273895       0.68355144910273
C         4.58585672888386       3.20447460838414       0.70345718604652
C         0.11245296558423      -4.80862310923666       1.77853293294325
H        -1.92106836427864       3.09916624342898      -0.17486990748114
H        -1.60228319319276       2.32720326015514       1.43705055092773
H        -1.55401102535371      -0.05404121948142      -2.05329998562532
H        -1.98441199303615       1.67099643337033      -2.18542239236920
H        -0.10960725925789       2.45069864871597      -1.20907131622215
H         0.42137294210583       0.75975405199634      -1.33672142879732
H        -2.37234894467786      -0.36140781264747       0.92368256315526
H        -0.84218872259452       0.21428474294033       1.57425146292094
H        -3.99228912440445       2.86568890273503       1.09770346669392
H        -3.73040121985013       1.17717811183499       1.40706339227228
H        -3.68370965611931      -0.48177202017950      -0.78057334798830
H        -4.00327889958317       0.24987145750258      -2.35835431113057
H        -4.27365418848328       2.48684297778656      -1.34208747105707
H        -5.33626305389258       1.35398941024686      -0.48083276231636
H         0.52452752978711       2.36815693172412       1.29454801221276
H         1.19761290361467       0.77707605112818       1.02376307334429
H        -1.20724443205500      -1.77819800684753      -0.78554934347365
H         0.36871621458264      -1.14989542496023      -0.24989704283086
H         2.07577964427879       3.31062319526289      -0.48920930449745
H         2.75807289960162       1.69165201886452      -0.73038745462741
H        -0.03503204031483      -2.05773763272472       2.04021065592668
H        -1.61355102554354      -2.65822816101252       1.54629779291024
H         3.45670428389194       1.64171180452472       1.68895221512178
H         2.78775605336601       3.25853939799576       1.91122310967461
H         1.06081849045155      -3.53509684249376       0.30609700712163
H        -0.53355585084860      -4.13700844099553      -0.17547382475271
H         5.26606648798120       3.36657400786696       1.55332794664330
H         5.09652793408363       2.54439868630319      -0.01608118195029
H         4.42458685922645       4.17697920961117       0.21059198512994
H         0.56737616584097      -5.73907530919089       1.40682001007296
H         0.71036690286595      -4.45306329163118       2.63218862241574
H        -0.89341788564543      -5.04932887188508       2.15677998632798
C        -1.74402568433425       1.20938230028416       3.70266189713287
O        -2.78320599642022       1.88391721287532       3.56483075919932
O        -0.60301531509304       1.33684363014255       3.17374322947900
C        -1.89927424818305      -0.08136380104837       4.57897561323695
F        -2.29608202039939      -1.12840842182894       3.75165286659411
F        -2.84429557659335       0.01613030789793       5.55225350030687
F        -0.74427567803004      -0.48996631163186       5.18164663409877
