36
C10H17F3N2O3S optimized with DFTB in AMS.
N         1.13084797389656      -0.05288892363684       0.23470416631054
N        -0.55756773980518      -0.09939033327340      -1.09948604026374
C         2.35015183108730      -0.47562983404035       0.91337929009103
C        -1.48746135493948      -0.57936798699617      -2.12055306683964
C         0.60800079856040      -0.67270883839824      -0.81977155846040
C         3.57975883797779       0.23125050831903       0.33946732161255
C        -2.82929787369721      -0.97016236985565      -1.49615224573751
C         0.27949321338246       0.93926565600689       0.63935201169894
C        -0.78711704143003       0.91133032185088      -0.20213266673957
C         3.83804141084745      -0.13442163979605      -1.11958327118040
C        -2.69399591511180      -2.12750834834502      -0.50964339882575
H         2.42205040060870      -1.56053581641782       0.79633428682410
H         2.23708786423787      -0.23829396994731       1.97403996799016
H        -1.01947779024557      -1.44530019065737      -2.59562632782241
H        -1.62365857359147       0.21533718238605      -2.86094125629639
H         1.04753586917917      -1.48910026997721      -1.36608315836873
H         3.45198100341026       1.31433423636492       0.43666401863429
H         4.43978833297246      -0.06302866186141       0.94762778750212
H        -3.26754596244824      -0.09888533326929      -0.99834536112295
H        -3.49518549949059      -1.25705714925702      -2.31524976551698
H         0.49276922556410       1.56952018647298       1.48492687860710
H        -1.67335668525086       1.52011243777414      -0.23278484171445
H         3.01385408032671       0.19728931748767      -1.75249376857573
H         3.94895631836984      -1.21327363486466      -1.22813288978141
H         4.75270300662438       0.34723316698139      -1.46382245958236
H        -2.00868913245803      -1.86759846121348       0.29642244250938
H        -2.31109100508196      -3.01343674230312      -1.01434205618530
H        -3.66889672456033      -2.36060793151329      -0.08283402096238
S         0.33692568812085      -3.87851039596724      -0.50482008539077
O        -0.41971211040414      -5.05398897753772      -0.17562573190752
O         0.38639749088338      -2.84769017142296       0.53085698837457
O         0.10244839611039      -3.33032806702788      -1.83808699126625
C         2.11308485347726      -4.40489841597789      -0.59664262221454
F         2.35047997622936      -5.24298683299712      -1.59291519088741
F         2.53268828416057      -4.95535122857511       0.53408685993718
F         2.85744059698759      -3.29823971551434      -0.80561863164936
