22
C6H8F6NP optimized with ForceField in AMS.
N        -0.71017410572184      -0.00968153306879       0.01562544876423
C        -0.03849428746106       1.18217973038682       0.00575288172281
C        -0.02416864362338      -1.19282121579500      -0.00658740961691
C        -2.17571613839184      -0.02117949215167       0.01727983752230
C         1.35851036152261       1.20844314500893      -0.00586856860814
C         1.37303545668267      -1.20211807568040      -0.01478975800421
C         2.06616448331386       0.00739140827253      -0.01230608997395
H        -0.57954456046414       2.12092016975206       0.00426039882545
H        -0.55447418708609      -2.13764663754798      -0.01438897271432
H        -2.56251995996565      -0.90452900657237       0.57002875021444
H        -2.57964851211510       0.88731289141662       0.51462445363049
H        -2.55029717086112      -0.05949256456705      -1.02672156802247
H         1.88761744543326       2.15248769302211      -0.00923058178942
H         1.91336970032747      -2.13972451206741      -0.02241613578724
H         3.14843395547872       0.01388650393058      -0.01683971693425
P        -1.49426490440844       0.82959054802320      -4.37734942836947
F        -1.70297816294803       2.36070583648867      -5.12811236535165
F        -1.58379950138841       1.62595131332080      -2.85859439544597
F        -3.19511538818051       0.58576388752762      -4.36001881584170
F        -1.30227948102703      -0.70082587817696      -3.61956673029731
F        -1.38967727331220       0.12810490247822      -5.94248200947617
F         0.21193167119626       1.03018783669948      -4.35964366804653
