50
C14H28F3NO3S optimized with ForceField in AMS.
N        -0.69231261713282       0.53650012087931      -0.20144593287009
C        -1.66133113815928       0.27699582910673      -1.31508481877720
C        -1.25469030823072       1.61073275458849       0.68080874364221
C         0.56580223020260       1.05028945002956      -0.84437081396000
C        -0.43432502306901      -0.69930112485887       0.61673010897905
C        -3.07880772063145      -0.08591046674558      -0.84356821292461
C        -2.67272763179300       1.30709647455087       1.20841079620212
C        -3.63640833688930       1.00724514818729       0.06332867657040
C         1.76538144064501       1.28993202025628       0.10553411525448
C         0.23051213218118      -1.87650323365396      -0.13547041022904
C         2.96480623234851       1.83562915779354      -0.68059393098524
C         0.43868280305202      -3.06517298233760       0.81091261443783
C         4.17607427744893       2.04519272307276       0.22286095197881
C         1.09922275919008      -4.23622085402985       0.09075634284266
H        -1.29616334349989      -0.51457675240379      -2.00139894885573
H        -1.75647380502139       1.18399509033485      -1.95340780546153
H        -1.30515341879934       2.57971248215118       0.13190698452244
H        -0.60628351361934       1.77944823355847       1.56738163165269
H         0.35709880345901       2.01375864244651      -1.36603633904988
H         0.89817365513916       0.35743476875936      -1.64968421382998
H        -1.37433791378686      -1.09096032078305       1.05008130879120
H         0.19007699912726      -0.44829686650641       1.50224380454612
H        -3.09192467368410      -1.06798453339755      -0.32782543362817
H        -3.73838502370809      -0.18324335105990      -1.73275079612379
H        -3.04648537556930       2.19118983930020       1.76825804819395
H        -2.65908695057885       0.46256521049527       1.92831364807745
H        -3.80208245842124       1.93281063607591      -0.53083307725799
H        -4.61600370910205       0.68310806953357       0.47581931192829
H         2.07739711051418       0.34200552982733       0.58969559067927
H         1.49966566741038       2.02370704744608       0.89357181753414
H         1.21829889852176      -1.57824909702676      -0.54156871296693
H        -0.41372686995585      -2.21596607580647      -0.97125138849944
H         2.69443389188230       2.80660795279975      -1.15005042658212
H         3.24105968550763       1.12093833101487      -1.48661050160115
H        -0.54270878615434      -3.39988765238004       1.21318082552123
H         1.08203128462783      -2.75828064881035       1.66426413996550
H         4.48671374413170       1.08234475125294       0.68158145081580
H         3.93800209208903       2.77575857800313       1.02478799205016
H         5.02187658017426       2.44011768161914      -0.37860683425067
H         2.09615013846966      -3.93676409710576      -0.29682554554972
H         0.46343424146405      -4.57744487011790      -0.75387113698961
H         1.23153609170837      -5.08021725760401       0.79979548988401
S        -2.08257158110730       4.51716744979537      -3.90564891294488
O        -2.59308783473445       3.40494718972206      -2.97928706019580
O        -1.20322981233556       5.36855045550066      -2.97798919826179
O        -3.32589113455854       5.39477908928321      -4.11125693453677
C        -1.27799503577484       3.94983427801465      -5.42975488893278
F        -2.17173883810540       3.20190025291893      -6.17203341986495
F        -0.18073140492159       3.17295093997365      -5.11074235053079
F        -0.86878711685099       5.04367256263590      -6.16826787520914
