42
C10H22F2N2O4S2 optimized with ForceField in AMS.
N        -0.55841401112736       0.31723304049811       0.17166944068967
C        -1.56125901356908       1.24609361289062      -0.44214123643558
C        -0.89051797990030      -1.10190216422487      -0.16517865461466
C         0.77461684794429       0.68179113893766      -0.41527556700761
C        -3.02863084381809       0.88973281546013      -0.13783718140858
C        -2.34088228193446      -1.49212973392449       0.16986530484338
C        -3.32629834138822      -0.55560396957354      -0.51692074182892
C        -0.52064362875587       0.51709018881790       1.64617534606706
C         1.98617464712974      -0.12420971422165       0.11378056778785
C         3.27650327682259       0.31006291868242      -0.59345966371634
C         4.48256670023013      -0.46013784033056      -0.06322470119176
H        -1.45479697578547       1.25008214415141      -1.55216366486841
H        -1.38123896567041       2.29235531147806      -0.10471415084637
H        -0.23330490116218      -1.80658843221327       0.38789676339657
H        -0.72834705179350      -1.28821102197206      -1.25179996810175
H         0.98484755129970       1.76161105622782      -0.23124836598564
H         0.74711234949758       0.55618667410527      -1.52289488513264
H        -3.69230175815967       1.55699244283740      -0.72951536341887
H        -3.27131405453038       1.06353440406014       0.93085416765640
H        -2.50565481049287      -1.47984024856077       1.26821746311568
H        -2.52876430037319      -2.53045883411834      -0.17964233856722
H        -4.36215712536092      -0.81503746577867      -0.20904736691561
H        -3.25210883567804      -0.67724296191773      -1.62040376406466
H        -1.52062898748588       0.42241080691036       2.11111171622869
H         0.11716059429138      -0.24280727171779       2.14565597160189
H        -0.13316464838106       1.52771856644396       1.90189037455233
H         1.84392781348517      -1.20876119242027      -0.06979609866428
H         2.11711805168130       0.04768849708121       1.20244059287253
H         3.44613241221238       1.39708768741026      -0.43329710219397
H         3.18767914603849       0.12638206750951      -1.68685441979049
H         4.35985357070186      -1.54778634723543      -0.25497303710178
H         4.59977859231862      -0.29070855079344       1.02865013348454
H         5.40225770551500      -0.11005858924086      -0.57768018025608
N         2.09759771198028       2.41859745434632       3.39157674354991
S         2.54425463135256       1.62983885786581       4.75303751912840
S         3.13851744060526       3.40057795180429       2.59972205746727
F         2.73162669132650       2.73384825848532       5.99766719236867
F         4.37742101733636       2.48575464279831       1.94486230345890
O         1.48521544874413       0.63199808936403       5.12601639606918
O         3.85164808040087       0.92303147955171       4.52986472509760
O         3.72755609739467       4.39802831378831       3.55739733725677
O         2.41201829555806       4.12127805903739       1.50010090941788
