34
C10H18F3NO2 optimized with ADF in AMS.
N         0.41725594337126      -0.23183339286821      -0.01923587846344
C         0.98216936404073      -1.52029370727857      -0.60758953399877
C         1.56226187794386       0.34586836020610       0.84547363313545
C         2.47748363585103      -1.28031719900692      -0.68616457851258
C         2.76190203270300      -0.58174062385361       0.64565634175204
C        -0.78662178300287      -0.51100652511085       0.84441496653767
C         0.09392203669132       0.72767997790378      -1.16307401458800
C        -1.97088459629478      -1.08356761151299       0.09197206776762
C        -0.52418875987851       2.03090567512969      -0.70963576913788
H         0.48987074425445      -1.72365640212318      -1.56721115992445
H         0.74753657017025      -2.32418071923180       0.10891743931922
H         1.21027536739849       0.39197191557876       1.88471044724658
H         1.78481854286169       1.36110627231791       0.46833137620760
H         2.72644877095032      -0.60285831007196      -1.51973090619192
H         3.02780090089568      -2.22485879478442      -0.80637093958661
H         2.83385628824553      -1.31957988352447       1.46259318375658
H         3.69354537819361       0.00149821500411       0.61524036456998
H        -0.43937402350828      -1.20496340561663       1.62591599874851
H        -1.05065643768073       0.43774214325624       1.33235037616272
H         1.06409817784790       0.93461448736875      -1.66307887800844
H        -0.56649958002119       0.17646826945042      -1.84878842787607
H        -2.76707073178089      -1.31531921886777       0.81480696143801
H        -2.37992775092797      -0.36870305997436      -0.63459744001136
H        -1.71652980068067      -2.01572886365289      -0.43236279039902
H        -0.65871128477077       2.65515766816021      -1.60594066582161
H        -1.50910735636345       1.91209733656123      -0.23421634273636
H         0.16216421221716       2.58633265358844      -0.05457008361690
C         3.30028427969182       2.26444994776434      -1.31638971612404
O         2.66968540572327       2.84441151403943      -0.39888177361188
O         2.91261956751073       1.43897947770427      -2.18322585905792
C         4.83770876172871       2.54175345691460      -1.33027703965815
F         5.47081879156267       1.58691491120122      -0.54735934714475
F         5.17539429071290       3.75536073467025      -0.81564813516186
F         5.39385058024374       2.46058587165888      -2.57108729400997
