45
C11H20F6N2O4S2 optimized with ADF in AMS.
N        -0.92479278640312       0.37361027271278      -0.09842730543403
C        -1.96634573427032       1.47358551766872       0.08036500659461
C        -1.62835059869929      -0.91072413534460      -0.51661639612738
C         0.00457148650198       0.83388700913729      -1.21441599816893
C        -3.07535024686743       1.09849181760774       1.04658689856459
C        -2.73234214782911      -1.31204218204791       0.44720173265189
C        -3.75993727559283      -0.19479318980228       0.60951169047606
C        -0.15296898215888       0.17602336469758       1.16276803865852
C         1.12195631397551      -0.12351479071311      -1.58942389588226
C         1.94268834356347       0.48559370909387      -2.72897025889005
H        -2.39055917915583       1.64308498684066      -0.92061927194633
H        -1.41291641446887       2.36967584996348       0.40080126754467
H        -0.85214632319062      -1.68348852361461      -0.59557260597495
H        -2.03676234861705      -0.70145105286681      -1.51690635029186
H         0.41250053823350       1.80061915988696      -0.87434853965186
H        -0.64985172229305       1.01100501264721      -2.07805048481105
H        -3.79444205321679       1.93407390337812       1.02778570169129
H        -2.70141252080688       1.02045707476168       2.08319710727636
H        -2.31641792746437      -1.61095907800707       1.42654033159841
H        -3.20440616483937      -2.21413163944298       0.02267645929760
H        -4.53538349626901      -0.48462803366369       1.33625212980750
H        -4.26069716715290      -0.01387012491155      -0.35495002377328
H         0.54831696229878      -0.65494410928040       1.02810291758392
H         0.39550350841660       1.10137800830140       1.38423955717800
H        -0.83928719472537      -0.05226595437442       1.98352822024578
H         1.78194940475765      -0.32530288497959      -0.72881133670726
H         0.69869704214681      -1.07725679136065      -1.93943119074668
H         1.31477897077319       0.62529562498379      -3.61992594474325
H         2.36782034048950       1.46005132983055      -2.44168953141506
H         2.77343359042789      -0.18166613173080      -2.99955089774179
N        -2.95075785152172       0.73697364564032      -3.12706181879829
S        -2.21306433085834       0.13486885174759      -4.43357972969376
S        -4.37280114714404       1.51521794834363      -3.18981432579921
C        -1.29820740521321       1.59760551356807      -5.22657400670198
C        -5.70139174433567       0.16021897376037      -3.30921340538122
O        -1.10914190496460      -0.67250320391228      -3.90579473224670
O        -3.07312356338780      -0.38224958308228      -5.48493018406216
O        -4.59178446345206       2.34854003750292      -4.36079285798493
O        -4.56981220798415       2.05122645024852      -1.84183210829889
F        -0.29274060906715       1.11232531542473      -5.99810529357996
F        -0.74092187642733       2.38706661021135      -4.26195551713548
F        -2.10127521791828       2.35361263740871      -5.98974557297128
F        -6.86304493910799       0.65247444777045      -2.81501872095409
F        -5.35161303677438      -0.92574102725186      -2.56415890242043
F        -5.90355777140708      -0.23126635985162      -4.57708065043478
