71
C21H29F18N2P optimized with ADF in AMS.
N         3.54629806831838       0.14947250410342       1.10321442079038
N         2.98653468756742      -1.94311353891687       1.20351034949367
C         2.41229943991166       2.31790524804414       0.71794780661424
C         3.56669570105731       1.58773063069624       1.40276135990285
C         0.79674779965302      -2.98093585034240       1.69136409972087
C         2.30793855934609      -3.17760200533719       1.64209273263007
C         1.03165019671805       1.84093555296678       1.16595242513103
C         0.19336766835839      -2.52023882096918       0.36628238485833
C        -0.11074905636365       2.62240987820840       0.52016056754395
C        -1.29191132025006      -2.18388809229372       0.48276397461143
C         2.81918074226408      -0.74716769791866       1.78000541524709
C         4.19293930560682      -0.48767515878874       0.06500538997888
C         3.84072289861713      -1.80648650217386       0.12973218054653
C        -1.48649720022782       2.11420173965889       0.94990584183186
C        -1.89067867792820      -1.65891584815164      -0.82063185230882
C        -2.63079175147967       2.86580044482127       0.27538445417811
C        -3.37352899700741      -1.31918408159185      -0.69486872332901
H         2.53101967030114       3.39040788608050       0.95247415830709
H         2.51185243141599       2.21928758527308      -0.37841668274717
H         0.55596116885898      -2.26215478198286       2.49039231848324
H         0.35171592589498      -3.93926004634388       2.01009063175944
H         4.54507116000929       1.96818433998504       1.07553020224945
H         3.51110173669950       1.67963776913309       2.49696683634661
H         2.71059435227265      -3.44131637410324       2.63120272883734
H         2.59089187817905      -3.95344034693647       0.91548598207728
H         0.95575304344530       1.90857825623866       2.26681377802831
H         0.90274392746151       0.77401112232416       0.90848495624821
H         0.34143465676811      -3.29875655422381      -0.40616123677094
H         0.72842006452693      -1.62236931878256       0.00349566235809
H        -0.01849510622312       3.69423805062953       0.77749221951854
H        -0.02468243046750       2.55844865218564      -0.58144300677514
H        -1.43001034119657      -1.43071781941281       1.28091352712282
H        -1.85019716335413      -3.08100852910599       0.80929312505351
H         2.24272996918048      -0.54348341887327       2.67284412640032
H         4.85527564337421       0.03923144644575      -0.61026625217910
H         4.13461580814535      -2.65137106306585      -0.47977692985487
H        -1.56198579530683       1.03757336922725       0.71493684149436
H        -1.57643220137865       2.19728864798549       2.04825042967773
H        -1.74716997987879      -2.41227808426687      -1.61729592891547
H        -1.32989535317534      -0.76082235648752      -1.14130095257418
H        -2.57974011539590       3.94411290507611       0.49797042736877
H        -2.58951028712822       2.74793116958298      -0.81948966149775
H        -3.61056608813414       2.49851957880378       0.61753968799911
H        -3.78621576869517      -0.95611759168957      -1.64863743291612
H        -3.53535440864583      -0.53660884268891       0.06316903063057
H        -3.95476160787290      -2.20412486261997      -0.38932948377602
P         2.84008632988168      -0.60396477981495       5.64487961042013
F         2.85826093674484      -1.79613070304235       4.43268194425373
F         2.90854953283289       0.56996732262152       4.41041542613004
F         2.77034184868540      -1.72700925271157       6.86272419826133
C         0.85840644690674      -0.76402427955451       5.42068462566554
C         4.81495132663825      -0.84628950521241       5.66279267392167
C         2.81403897590165       0.96047869929501       6.88502341491158
C         0.18971587812409      -2.15608709310272       5.70860892075928
C         5.68965086888282      -0.16380050403358       4.57199137468749
C         2.58860990852527       0.72699393686694       8.40551480241883
F         0.53858191685785      -0.47613190252567       4.08641405602050
F         0.10753077698938       0.09684663062753       6.17663415222922
F         5.08017013105979      -2.19445074588963       5.51324673188117
F         5.36410629601420      -0.49048410225898       6.86956217351634
F         1.84285872277158       1.85165580367560       6.48472699752646
F         4.00201484506038       1.65119829777290       6.77999648548446
F        -1.10034148103675      -2.11500510496329       5.25172634547561
F         0.14725641751245      -2.40078945470546       7.03370916279419
F         0.78933752939361      -3.20375610360378       5.09492463347261
F         5.34388568387840      -0.59966615696435       3.32380520964830
F         5.59765135648533       1.18537346666201       4.58085349986858
F         6.99672161770703      -0.48746658510510       4.76042900018095
F         2.50661014768097       1.92916960330355       9.04270145219409
F         3.60959798355911       0.03648245490363       8.95777063276145
F         1.43475204450113       0.05732881325719       8.63457311932098
