36
C8H18F2N2O4S2 optimized with ADF in AMS.
N         0.00555138072208      -0.10317136806736      -0.16366446997832
C        -1.03829891397305      -0.46977337083695      -1.20676632988916
C        -0.28928711079044      -1.07946799295091       0.96391110743077
C        -2.30287656654520      -0.79700969884490      -0.41261459579502
C        -1.81373965864136      -1.17583420171213       1.01081420482628
C         1.40039271179824      -0.26795742068348      -0.73122473941036
C        -0.22115723179491       1.29748459421534       0.30182015923680
C         2.51925835758711      -0.16605671135887       0.29132492594425
C         3.86830327270542      -0.20885082985234      -0.42738894902402
H        -0.65422541404720      -1.35275385809467      -1.73666549023500
H        -1.13219628457826       0.36423870512692      -1.91675448484576
H         0.18143117893024      -0.70953575466226       1.88370596049412
H         0.17208531827784      -2.03636275526436       0.67389690074416
H        -2.81908533799429      -1.64001821863074      -0.89179947879312
H        -2.99550864303247       0.05764997877222      -0.38376754003412
H        -2.23934793767132      -0.50146292808681       1.76940488532777
H        -2.09974424336168      -2.20452033657770       1.26878671535123
H         1.49998855300134       0.50269617042937      -1.51384563552550
H         1.41947270677964      -1.25505175868875      -1.21529253261859
H        -0.04748703254786       1.98245482186330      -0.53801312882284
H        -1.25424494561830       1.39201898331632       0.65537773536084
H         0.47172821523576       1.51984573858664       1.12049230643343
H         2.44396938272343       0.76726423745986       0.87527523491405
H         2.46079728555366      -1.01938108889507       0.98583793332427
H         4.68954061485570      -0.18504750600847       0.30184494875082
H         3.96218403674660      -1.13623630300846      -1.00959441347527
H         3.98430466463763       0.65012479347473      -1.10761641282589
N         0.91091165145437      -3.80806331825811      -0.22071573798675
S         2.46450949914321      -4.13284374518342      -0.49332571641131
S        -0.24333293268219      -4.08509965253250      -1.29551736436894
F         2.81626044772778      -3.17630321153176      -1.82306103505603
F        -0.17538556451723      -5.68676930044200      -1.60399295950163
O         3.21329017027279      -3.50735022496813       0.58069653466620
O         2.75751859656117      -5.47421728894224      -0.94327195626479
O        -0.03563823514078      -3.44806168692561      -2.58917447651747
O        -1.51240339467745      -3.87493268623672      -0.61640533542511
