38
C10H22BF4N optimized with ForceField in AMS.
N        -1.45001744308659       0.40942224509175      -0.07494855624748
C        -1.76295266506720      -0.86426714321365      -0.78809746593812
C        -2.53698528950542       0.58587956202999       0.92857707256130
C        -0.13578403302584       0.33416840968737       0.63494130930379
C        -3.02715749230610      -1.45723481875600      -0.18303920084601
C        -3.69260744579675      -0.30496147542524       0.52133897657662
C        -1.47664211565533       1.55514593635579      -1.02169668682768
C         1.09867906513287       0.29940993764277      -0.29673596816405
C         2.36012615602384      -0.09308953417359       0.48345943830449
C         3.59515548096909      -0.08200759901916      -0.42367794398032
C         4.84953131888950      -0.48308834075894       0.34696218361303
H        -0.94855678214542      -1.61862127765860      -0.71028357805732
H        -1.93814775163811      -0.70410446102668      -1.87757912268802
H        -2.87886234366086       1.64289017722009       1.02323769244076
H        -2.21751300248042       0.26819124117605       1.94901649546925
H        -0.11871386853646      -0.57203961236019       1.28479737145098
H        -0.02153582277632       1.21109439196172       1.31353210831973
H        -2.75586378496708      -2.24098364576937       0.55932787227592
H        -3.69101928310528      -1.89801033437950      -0.95832130353745
H        -4.35969173033531       0.23684136955141      -0.18459586872156
H        -4.27908709276432      -0.64790529479631       1.40190137922077
H        -0.79281460080605       1.38690481237407      -1.88182986638025
H        -2.49723428957485       1.70095193610507      -1.44280841110732
H        -1.17460829636246       2.49797891472199      -0.51349177908032
H         0.94834496495610      -0.42343471373324      -1.12578980102085
H         1.25539258961448       1.30770005424320      -0.73713221465992
H         2.22633610017734      -1.11300580171720       0.90720972815042
H         2.51224933888631       0.62158474378134       1.32273373700835
H         3.74221578817133       0.93670457465147      -0.84474457021802
H         3.44844004966881      -0.79378520086876      -1.26534011417945
H         5.04567981894461       0.23874185122225       1.16849892885864
H         5.72029622065209      -0.48535567485333      -0.34116426155727
H         4.73311870469940      -1.50241401456234       0.77344455560342
B         9.62300530449706       0.55517213063284       0.33982749574264
F         8.23871299095628       0.25192047390522       0.25765010122559
F        10.27034575895778      -0.40790116943738       1.15874325035044
F         9.79116325343520       1.84736498056896       0.90470006493415
F        10.19127039486406       0.52928252328612      -0.96159907129889
