39
C11H21BF4N2 optimized with ForceField in AMS.
N        -1.11465962102702      -1.72643874018633       0.22050989058841
N         1.10656543659651      -1.70798827014993       0.30289805073342
C        -2.50879920536828      -1.45744406514813       0.56310436890112
C         2.46586095865411      -1.40186370090000       0.74352680480611
C        -3.01164938491354      -0.18359860666594      -0.12919996998403
C         3.05043776676900      -0.22427252333582      -0.04941045181470
C        -0.03269559674896      -1.44654356747779       0.97227788252304
C        -0.64573437211698      -2.18946455498069      -0.95583395687592
C         0.73304247642258      -2.18077941016687      -0.90377156143898
C        -2.24274086519114       1.06203045993316       0.33525015953248
C         2.21036202977490       1.05093759504828       0.11625883786591
C        -2.81633070645785       2.33423465286271      -0.27970497898450
C         2.84933447667996       2.23776165835395      -0.59693437691628
H        -3.13245957728041      -2.31901114554326       0.24612194465249
H        -2.61759915641467      -1.35208374281119       1.66504515689236
H         2.46814851771901      -1.15299893208173       1.82787985075218
H         3.10641628918642      -2.29891735992229       0.60374295997144
H        -4.09139081492928      -0.06013276139649       0.10699886117794
H        -2.91198726828913      -0.29776958903438      -1.23094348895682
H         3.10823273511151      -0.49672985964045      -1.12595311006888
H         4.08508610304794      -0.03653839935217       0.31217283238829
H        -0.07364767485046      -0.99861726678159       1.95818453974689
H        -1.25818881904186      -2.48088500537517      -1.79908057662333
H         1.41055108131906      -2.46166564932274      -1.69939946067954
H        -2.28909243875180       1.14366849885314       1.44343452065966
H        -1.17792256970788       0.97884032542826       0.03295992714466
H         1.19960056208268       0.89056974407815      -0.31499048983063
H         2.09986948306498       1.29339122351705       1.19608315375430
H        -3.87010016475473       2.47739676252344       0.04147629025178
H        -2.77122253740708       2.28165193295700      -1.38882626661365
H        -2.22012287605052       3.20847380616131       0.05812992814658
H         2.95248208904326       2.02556559313067      -1.68293591921288
H         3.84968970590562       2.45512113872283      -0.16570119257448
H         2.20533803283803       3.13403207255278      -0.47082644715156
B        -6.44723153503508      -4.35367612506337       0.89809938155817
F        -6.54651488201100      -5.38826989668840       1.86592695852651
F        -6.78943581636063      -4.86679487436555      -0.38128329311628
F        -5.11670776925251      -3.86122219621394       0.86953871469834
F        -7.33514972165475      -3.29877761651848       1.23869279107037
