46
C12H26F6NP optimized with DFTB in AMS.
N         1.37733487132475      -0.68577253896793       0.31817311453837
C         2.55259968315964      -0.41022418799904      -0.57643956656046
C         1.90294909327712      -1.72084349614635       1.26949388235439
C         0.97979070540740       0.53982860912794       1.08570585054910
C         0.25598305926515      -1.23267872443878      -0.51332874694847
C         3.26997631881369      -1.74577178752209      -0.74590564782604
C         2.83030061950086      -2.60774701079611       0.44646591562675
C         0.51161485785046       1.69640026287361       0.20857767883597
C        -1.04242649370325      -1.49619403346379       0.24729907275490
C         0.41366712136329       2.96400193312663       1.06758605763002
C        -2.04150804300899      -2.20201686983699      -0.67839085159221
C        -0.06272770585001       4.15511631361792       0.24033462247503
C        -3.36499136722284      -2.46081357985889       0.03799329173848
H         3.19075280148063       0.30870926713167      -0.06390953557508
H         2.20554054771683       0.01235049453329      -1.51929109116379
H         1.07424109388368      -2.26060599291173       1.72581858625803
H         2.46227956719928      -1.19422803056820       2.04329097961284
H         0.20267640786297       0.24613146930851       1.79442016756031
H         1.86063296251060       0.84714327719159       1.65043966741258
H         0.06955907245156      -0.51579311201182      -1.31681934250799
H         0.61932316167737      -2.16096615545918      -0.96101459069907
H         3.00189079724763      -2.22124442810398      -1.69222761640290
H         4.34813322499504      -1.58152420017479      -0.73296105252673
H         3.68604114502280      -2.90238013148132       1.05512700632312
H         2.31727602776985      -3.51107880507127       0.10828819475092
H         1.22728335621868       1.86962847489333      -0.59919305655220
H        -0.46244174253050       1.47749044891008      -0.24013386785930
H        -0.85902852291005      -2.12389986503729       1.12301252528570
H        -1.47860777167978      -0.55498240106631       0.59119468759136
H         1.39795401674067       3.18228528044865       1.49241085698612
H        -0.28114889646017       2.78928364951429       1.89546231893317
H        -2.21868605452610      -1.58040074783376      -1.56222360585135
H        -1.61549349064237      -3.15249696230926      -1.01616386281575
H        -1.05197029914434       3.96270814449568      -0.17798587253838
H         0.62952555728948       4.35234008003762      -0.57900640053892
H        -0.11770961789654       5.04297866576005       0.86965880922302
H        -3.81655825343749      -1.52120378944036       0.35795833404638
H        -3.20821173696413      -3.08859188762195       0.91577356657912
H        -4.05636021596879      -2.96837573900463      -0.63410507507394
P         4.68367664787928       0.85145085331443       2.50279152031925
F         3.22581158763382       0.36772205244913       3.18597146821269
F         4.58708492884904      -0.50106190136552       1.50313981417714
F         3.78960780322747       1.69151929580662       1.34787352902770
F         6.05803968822499       1.29880747288219       1.75809241831671
F         4.69247383900818       2.17059214825425       3.45104620080598
F         5.49310675129311      -0.02584796158615       3.60607178340744
