32
C10H15F3N2O2 optimized with ForceField in AMS.
H         0.45328994752994      -0.52749160662282      -4.90722578674134
H        -1.20973037073884      -0.68498071280183      -4.22068660101408
H        -0.06294950609610      -2.07801501323370      -4.12992286291687
C        -0.14498396320984      -0.97154581074163      -4.08539745463033
H         2.49250826381100      -0.08098094419300      -0.37993403178440
H         2.39598820820447      -1.19769791119587      -2.81034254553622
H        -1.37338564593688       0.47553192214993      -1.95616705285719
N         0.35382320612028      -0.49478838273587      -2.80200957783071
C        -0.33388493162966       0.18414524709188      -1.86343488211775
N         0.43234446074164       0.43173498437780      -0.78303815038643
C         1.64155435718381      -0.10342536095650      -1.04905365743166
C         1.59246375728539      -0.67804462378371      -2.30381363268095
C         0.02488591846209       1.11428667816327       0.44241886931364
H         0.80817069656652       1.84753400791546       0.73486445611061
H        -0.91969982205899       1.67357059224696       0.26221694123295
C        -0.19542418007870       0.09707151729814       1.56551203706325
H         0.75111715540481      -0.45591844543512       1.75292146009652
H        -0.97219955381569      -0.63177226677325       1.24454438280231
C        -0.64675736891738       0.78933815770938       2.85612918712509
H         0.13928692818103       1.49972770343453       3.19361520787605
H        -1.58225967491626       1.36065388150524       2.66879939045543
C        -0.90548616312741      -0.22665502783891       3.96481617788573
H         0.01969703755845      -0.79989927904919       4.18734187394091
H        -1.71017970883084      -0.93065613721287       3.66268067969444
H        -1.22593019496834       0.30309560698411       4.88654887068476
C         1.36474290028799       2.20561456938585      -6.77240614161877
O         0.71750286410611       2.84915034943100      -5.96148013609184
O         1.97822204030438       1.21664801478616      -6.40487267168036
C         1.40862722440983       2.61943160207217      -8.21428439593586
F         2.72311237220687       2.79134754420687      -8.60726205154999
F         0.72439804496736       3.80781733476241      -8.40269560052195
F         0.82707335689295       1.63706129245309      -8.99391038275501
