62
C18H23F18N2P optimized with DFTB in AMS.
N        -0.65767336854527       2.86884711719289       0.87795128102719
N        -2.46393650208455       1.81196657412422       0.36797912407424
C         0.74748995501749       3.26133595898434       0.93867046891069
C         1.49519381247974       2.43780299008533       1.99316890680074
C        -3.38602260554969       0.84494628160522      -0.21869663271240
C         1.63654994952443       0.96689095978292       1.59736329723274
C        -3.44838036651255      -0.43037852754231       0.62826224999820
C        -1.16611537047023       1.92807565031941       0.08066704684066
C        -1.64059207951579       3.34004094878155       1.70272821675579
C        -2.78054822732169       2.67477658854703       1.37879838708054
C         2.26615099728713       0.15164776839896       2.73228803235669
C        -2.11940719254641      -1.19095874582150       0.63008058782286
C         2.29995867640634      -1.33589605280015       2.39002864209935
C        -2.25332304076868      -2.54316008023155       1.32782679968885
H         0.77978117994910       4.32270132664713       1.19626940193039
H         1.18241846002192       3.11885843408458      -0.05466772658887
H         2.48492475436147       2.88544481619059       2.11903986646170
H         0.96484508747632       2.51597544847991       2.94406288717609
H        -4.37049446484572       1.31678620160972      -0.26530223227067
H        -3.04493569795975       0.62430278692554      -1.23413926664877
H         2.24851073066603       0.88387289840545       0.69198360981839
H         0.64735087567688       0.55614761518844       1.36944707713704
H        -4.23555053209049      -1.06124396724610       0.20531226766606
H        -3.73457746366333      -0.17057910198153       1.65040814028125
H        -0.63571669195196       1.38950738154599      -0.68476532064571
H        -1.45509665060580       4.08293662573295       2.45863070653440
H        -3.77062444356131       2.73097020183264       1.79539017801110
H         1.68417680282615       0.29910311172723       3.64700391448302
H         3.28309205584606       0.51180025825698       2.91828532743639
H        -1.78470479210417      -1.34288398604558      -0.40283797432196
H        -1.36049805730938      -0.59219894239868       1.14337293649486
H         2.87739015355110      -1.50986093065949       1.48064337216478
H         1.28780732575387      -1.71358292817661       2.23796790604197
H         2.75832960498613      -1.89376311163346       3.20625674999119
H        -2.57883501371681      -2.40965950882374       2.35856566493197
H        -1.29009652544619      -3.05295957400876       1.33033225571369
H        -2.97995695789460      -3.17041826784852       0.81037860416952
P        -2.75241398511972       2.32933982402547       5.64631287938455
F        -3.73520063635114       3.67022346548556       5.80322247474070
F        -2.54068114709160       2.27086147106017       7.29200309876895
F        -2.90741892599579       2.34804933887976       3.92988389554952
C        -4.43681414322291       1.31530382668498       5.70399134919166
C        -1.30045730895007       3.63689762767910       5.36421220923766
C        -1.53536859190927       0.72587275843072       5.52272829674135
C        -5.43928329489441       1.56006301905861       4.53482252736854
C        -0.57433243499194       4.25082869481306       6.58653761543678
C        -1.40820929590872      -0.00378632757637       4.16318288416074
F        -5.08285091180240       1.62899789983448       6.83602425013278
F        -4.24733568838212      -0.01834161242929       5.70861211357410
F        -1.80421565685455       4.68071599927980       4.66946803925973
F        -0.34063895566945       3.12128615875941       4.55337675680812
F        -1.90941123693199      -0.20258112337134       6.42017651245406
F        -0.28009863381844       1.08811406419303       5.86597710883651
F        -6.62118695855186       1.01681519112275       4.82442571230069
F        -5.00549628513668       0.97716168706458       3.40384758551314
F        -5.63878768940295       2.84466113413417       4.26418839685231
F        -1.42831515092548       4.90611352723684       7.36276525752104
F         0.03926577106939       3.32544753867381       7.31404040140046
F         0.35450349729689       5.12157658760231       6.16988747931092
F        -2.59142350501976      -0.42264888934995       3.71415343156475
F        -0.60616260870024      -1.06658042081763       4.23615538365049
F        -0.89610309750051       0.80514359399491       3.22039371909650
