25
C7H16ClN optimized with ForceField in AMS.
N         0.84982398249060       0.01325591798192      -0.03766108057817
C         0.06525279082626       1.22711875702902      -0.40980381885569
C         0.11930173161530      -1.23055697051488      -0.41989199098846
C        -1.36856195691481       1.22173227751314       0.15045592096600
C        -1.31181798560920      -1.29278595949777       0.14225427413704
C        -2.10655790350176      -0.05173526283605      -0.25683777884475
C         1.17600802713967       0.01410596445451       1.41256240352974
C         2.13349145012140       0.04406901635021      -0.78240413133174
H        -0.01198926239735       1.31044468758236      -1.51902843011504
H         0.57976757963149       2.15022934487699      -0.05753060853932
H         0.67421986771358      -2.13327075119589      -0.07629372336825
H         0.04423974766905      -1.30759065276635      -1.52967204539973
H        -1.91749022068925       2.10022859738114      -0.25301279157532
H        -1.36139908671731       1.32443486222968       1.25567968883499
H        -1.29825562577592      -1.40106137992267       1.24696362879609
H        -1.82149094725409      -2.19250631802144      -0.26541348016959
H        -3.09961692973620      -0.07803650947472       0.23819292549908
H        -2.26955111367049      -0.05117422595902      -1.35712572063209
H         0.27114506669416      -0.00393140871908       2.05063039783837
H         1.78610334771041      -0.87610952767610       1.68491590753123
H         1.75438998070342       0.92326389212396       1.69122393162894
H         1.96532322419625       0.04517263699922      -1.88297503730428
H         2.72172807424459       0.95611014401322      -0.53219813192005
H         2.76030296488145      -0.84412730477938      -0.53998674510621
Cl       -5.63902383457124       1.44000750462798       0.68068635676719
