44
C12H26BF4N optimized with ForceField in AMS.
N        -1.63307048617720      -0.28660018441012      -0.17475937327904
C        -1.90828615829769       1.12864873164065       0.21905435409478
C        -2.64289161590195      -1.20139409669796       0.44675819148164
C        -0.29307438653128      -0.71142142370602       0.35271924326982
C        -3.35352443777978       1.57706225655729      -0.06258067343835
C        -4.10636762342065      -0.80141518790823       0.18606947446018
C        -4.35783007214897       0.64303975934340       0.60469702313266
C        -1.65689141025874      -0.44073490404569      -1.65465479576039
C         0.92978406108148       0.06354959867710      -0.19893938596396
C         2.22834359596401      -0.46417120087363       0.42816597637059
C         3.45669561705789       0.26071814760011      -0.13669423210979
C         4.74882979176876      -0.28846124649830       0.48159063772444
C         5.97915759483071       0.41362562837630      -0.08602252126992
H        -1.23958869293816       1.82887208947082      -0.32650818713819
H        -1.71203277903027       1.27095456577317       1.30653857683969
H        -2.50735676105317      -1.23194027384970       1.55332583722263
H        -2.49869760643951      -2.24484628555313       0.08347789165150
H        -0.27601058419534      -0.61281070446837       1.46331415264649
H        -0.13033947757448      -1.79325856191384       0.13591218038507
H        -3.49766680596192       2.60346358701208       0.33779656972555
H        -3.54293309437016       1.62350731471966      -1.15579323799969
H        -4.38024204971640      -0.94747586579131      -0.87919638827283
H        -4.77107429778139      -1.46652005776360       0.77860130517246
H        -4.27292698149790       0.73148276409226       1.70987647728559
H        -5.38864292308763       0.93809147703076       0.31248549668952
H        -1.00111294390982       0.30246806582555      -2.15532151261279
H        -1.33626019114931      -1.46283158058745      -1.95102718235994
H        -2.66523129052064      -0.27922152423171      -2.08156213387138
H         1.00561581967800      -0.06404350725998      -1.29843828943430
H         0.84540523716479       1.14443919814926       0.03712411222072
H         2.19060068600452      -0.31877432167305       1.53082173819112
H         2.31974696478014      -1.55332970127064       0.21945059428295
H         3.37625100079075       1.34852795284267       0.08208307508674
H         3.49070749191510       0.12350674246001      -1.24028454029503
H         4.83058672204564      -1.37767457113780       0.27307895927451
H         4.72806776293460      -0.14249782734942       1.58370181901909
H         6.04041008420256       0.25886759121969      -1.18466145053000
H         5.93777875618111       1.50267636447133       0.13021638512932
H         6.89470869622491      -0.00642420323508       0.38221347643669
B         0.85374722549621      -2.41332781287072      -4.89101836886574
F         2.17241204260473      -2.92949565983779      -4.99693948999496
F         0.80780863729508      -1.10996701977787      -5.45352193435503
F         0.48149584092991      -2.35230741510596      -3.52309837104321
F        -0.04533527920855      -3.26260708054471      -5.58953732809918
