46
C14H29NO2 optimized with DFTB in AMS.
N        -1.97618235718711      -0.12355909906921      -0.04691969828084
C        -2.08395368719855       1.35095595346832       0.15917458087287
C        -3.04914342210233      -0.81137361061601       0.75433357974554
C        -0.67294116242455      -0.65052184605944       0.48795552023855
C        -3.45935515306335       1.87695962880553      -0.24093028850584
C        -4.44919190528913      -0.33138166340706       0.41190564172140
C        -4.56519602286246       1.18454223218272       0.55630741314054
C        -2.07925656349590      -0.47195259161219      -1.49294857728050
C         0.57214590282034      -0.11124419390040      -0.20869137036191
C         1.81244862345061      -0.78313067453822       0.39357899652153
C         3.09281320296967      -0.27699687101536      -0.27667324672800
C         4.33286789234038      -0.95128642917427       0.31879869581085
C         5.61305835926388      -0.45069748037113      -0.34775361858516
H        -1.30713699561974       1.83614503613942      -0.43564670199580
H        -1.89462791358056       1.54806240567016       1.21875140731916
H        -2.82594520924199      -0.61707697735536       1.80764327795923
H        -2.94830514632887      -1.87858224859058       0.54489880537011
H        -0.63834994911566      -0.40893069597270       1.55389765175805
H        -0.73118866519117      -1.73840988292002       0.36639165046861
H        -3.47410990536796       2.95275336511376      -0.04555074981565
H        -3.61925117410075       1.72987670509455      -1.31226280844029
H        -4.71576565474012      -0.65546913680744      -0.59640628578809
H        -5.13723856893074      -0.82315490272008       1.10404865523611
H        -4.47908565736950       1.46389082933809       1.61219670100991
H        -5.53996613028634       1.52083401908887       0.19493447230895
H        -1.47871757742045       0.22399733913170      -2.07520683520833
H        -1.72063174378746      -1.49289686744202      -1.61029639689858
H        -3.11582372225467      -0.43418508534933      -1.81015738614054
H         0.53583757722294      -0.32789700734512      -1.27904686300941
H         0.65154845108618       0.97302721909342      -0.08222619108244
H         1.85384974583188      -0.57619072259202       1.46842594975360
H         1.73415296018857      -1.86703649503025       0.26364968896803
H         3.16827742187480       0.80849366768819      -0.14723311904648
H         3.04592961707558      -0.48217625054438      -1.35159946102000
H         4.25441038361536      -2.03566654166623       0.18823645722752
H         4.37760933750891      -0.74630029039070       1.39386617360708
H         5.59627718918153      -0.66529240366426      -1.41718023896552
H         5.71946619090239       0.62658166018912      -0.21179434177750
H         6.48042695715948      -0.94359177579270       0.09176957140092
C        -3.20291961186208      -5.02401420685948      -1.49948380610991
C        -2.94727126407444      -3.55158897705787      -1.10631551249816
O        -3.82823755718583      -2.71814064597203      -1.39641469633502
O        -1.86006009938426      -3.31599105717150      -0.52122323604141
H        -4.19464819010863      -5.13565862953969      -1.93285916901025
H        -2.44739225031900      -5.33144508950606      -2.22157319761917
H        -3.10995405749899      -5.65096965005082      -0.61381564359378
