31
C7H16F6NP optimized with ForceField in AMS.
N         0.83080054434778       0.00297740982752      -0.02915236334820
C         0.07950887739204       1.23661386662965      -0.40421202421579
C         0.06710715293161      -1.22068956739516      -0.41076671323304
C        -1.35579166390029       1.27038725711454       0.14996271818862
C        -1.36428759245808      -1.24686068008000       0.15058763164429
C        -2.12904792502315       0.01395077433140      -0.24804728405545
C         1.15587116020040      -0.00231400134890       1.42121154932466
C         2.11414840167091      -0.00188035403375      -0.77448501592461
H         0.01015023659057       1.32387137047637      -1.51355542106000
H         0.61634948090879       2.14536454026395      -0.04787700604286
H         0.59830168279828      -2.13774892280302      -0.06736063622346
H        -0.01308662149888      -1.29309834241511      -1.51981722093040
H        -1.87863154798136       2.16034243214723      -0.26227920929648
H        -1.34848626734673       1.38111098100451       1.25443540177032
H        -1.35299580467974      -1.35581765118307       1.25508610711064
H        -1.89384939708569      -2.13470103086169      -0.25765311984771
H        -3.12035040251844       0.01695808921029       0.25411142925766
H        -2.30090056330884       0.01407964558348      -1.34706914027579
H         0.24972237894593       0.00244916999016       2.05770435714112
H         1.74582860443669      -0.90563156260595       1.69483965871173
H         1.75569504744087       0.89312551696837       1.69912585768140
H         1.94435476475631       0.01083624745282      -1.87394783197222
H         2.72972814798775       0.89088050616701      -0.52191274705405
H         2.71343815253314      -0.91028883095887      -0.53841720892232
P         1.45173087444921      -2.71024463251291      -4.34875337380888
F         1.56784532560217      -4.41544309784992      -4.51904986664478
F         1.74783333595307      -2.89976941996893      -2.66792973017458
F         3.14362008079598      -2.48108050365531      -4.53683965312195
F         1.24422772200708      -1.00969397019338      -4.22344484387815
F         1.28303355559272      -2.64211468558650      -6.05687989843884
F        -0.24326619774007      -2.84433163171482      -4.10175050136088
