48
C12H26F2N2O4S2 optimized with DFTB in AMS.
N        -0.15361041108922       0.56345028979614      -0.72767149273277
C        -1.16491323050796      -0.25797624630699       0.01120518817375
C        -0.50083616222541       1.97675676781423      -0.34754662522278
C         1.23942153737542       0.25415849210761      -0.24801630068141
C        -1.33582016925694       0.43504005484708       1.35813989793453
C        -1.03451458781530       1.91388990369610       1.08245787998062
C        -0.30939641400274       0.34263266105328      -2.20222168804289
C         1.76410797309933      -1.12655018217838      -0.63007406367147
C         0.62943843609825       1.17855260146422      -3.05708748601707
C         3.09569928701231      -1.35831292376297       0.09635038395227
C         3.72492445670789      -2.69308256106398      -0.31243093927270
C         5.00723153481035      -2.99443026217476       0.47311852889414
C         6.13736547369640      -2.01043164765124       0.17130789863546
H        -0.82276318025410      -1.28918776539508       0.08814353454627
H        -2.09609561436298      -0.23047552319741      -0.56003922790241
H        -1.26829650090345       2.32785177293493      -1.04038880651912
H         0.38507578253387       2.60309245735435      -0.43625253205365
H         1.22617297549395       0.36629493580774       0.83679449183108
H         1.89573721064039       1.02290546307475      -0.65670292910542
H        -0.63997219504746       0.02657170491207       2.09365146414871
H        -2.35050790977956       0.28724697120911       1.73113742226052
H        -1.93464942308855       2.52494070627824       1.17008854834872
H        -0.29337106535779       2.29499151128227       1.78551297221125
H        -0.15458253860120      -0.72323348329599      -2.38695213122805
H        -1.34744084721786       0.58556514706184      -2.44655870250375
H         1.05607378232547      -1.91329859619648      -0.35152921493335
H         1.92996798231661      -1.18748096576912      -1.70939846327517
H         0.40791268544535       0.96482215510541      -4.10266260185074
H         0.48400984012795       2.24206678927862      -2.88145020336948
H         1.67261082233643       0.93711592458012      -2.86823113626073
H         2.92335065633543      -1.34581476368310       1.17745201014686
H         3.77438093972872      -0.53653709868100      -0.14372404757997
H         3.94625435192376      -2.67900372964766      -1.38528625959092
H         3.00545696895423      -3.49970094956499      -0.13156290067597
H         4.78731867315129      -2.98069244446761       1.54593582274363
H         5.33700283073591      -4.00608152694627       0.21407696763680
H         5.88309987497534      -1.00628792887919       0.51066673554270
H         7.04576490324348      -2.32530889732167       0.68528805064651
H         6.33900944400995      -1.97586470884256      -0.90024976461859
N         3.58344012564659       4.11914171296166       0.43513483254674
S         2.68211723097329       4.21139758599823      -0.86451671781912
S         3.30451628002540       2.87963484129088       1.38143388363177
F         1.20680808204732       4.64171686858077      -0.29279918538501
F         3.91014269492148       1.60370535151048       0.54296381401852
O         3.09954008371629       5.32500341280219      -1.64099930922051
O         2.39400375071369       2.96957639449816      -1.53805485068864
O         1.92596412762130       2.50012881197649       1.55780718873788
O         4.13882676016705       2.97284054644954       2.52723129995299
