18
C4H12ClN optimized with ForceField in AMS.
N        -0.03338829289000      -0.00178207728498      -0.00497747150141
C        -0.93776651054001      -1.10991699873554       0.37199554480180
C         0.66720962992828       0.49171632125433       1.20056906742947
C        -0.81983117607620       1.09987503585146      -0.60170098455406
C         0.95656470719955      -0.48893212730771      -0.99020175732180
H        -0.36771195351527      -1.94882051604367       0.83109513203459
H        -1.69970343635017      -0.76957664652688       1.10855481052649
H        -1.47469096292725      -1.50693373098112      -0.51843482862527
H         1.35059663619781       1.33308209154952       0.94801532083907
H        -0.05992354088366       0.85630283155163       1.96061723024201
H         1.27424113796637      -0.31605756288515       1.66748209748988
H        -0.16034482502677       1.95136828571531      -0.88414453922845
H        -1.35083200494147       0.75938569823084      -1.51863145025095
H        -1.58071459171178       1.48059997302045       0.11590166998596
H         1.63523299721932       0.33210847973024      -1.31251963235259
H         1.58174179071517      -1.30245484772753      -0.55861145528793
H         0.45021316086440      -0.89039836391268      -1.89674270866648
Cl        4.35573851807170       0.19091122600146       0.35681691203966
