47
C13H28BF4N optimized with ForceField in AMS.
N        -1.54576544116511       0.09423925163694      -0.08410134433964
C        -2.55898314146675       0.48581461400355      -1.11705386705341
C        -1.78415997614563      -1.33295982503947       0.30605080700142
C        -0.20073698773512       0.19494025022514      -0.74754367169562
C        -1.62609135559781       0.96843435907400       1.13705864030076
C        -4.01738589021104       0.27193032048723      -0.68018269482777
C        -3.22745784810279      -1.62510431134059       0.76489761186488
C        -4.24778161095823      -1.18117478791631      -0.27911951710058
C         1.02319245720064      -0.12273094959369       0.14772425461860
C        -1.29141657664719       2.45438028768078       0.91765347379433
C         2.32617491254771       0.04133375768802      -0.64702802672599
C         3.55309999357612      -0.29578285966002       0.20997232497672
C         4.84902181868049      -0.09928601469395      -0.58652203686972
C         6.07558389807406      -0.45600837034827       0.24827556969990
H        -2.40919717775670      -0.11433126506961      -2.04519645577202
H        -2.43180561623185       1.54239124457850      -1.43152055139655
H        -1.11394857376057      -1.63267821411907       1.14085580083126
H        -1.55922005131369      -2.01271132479449      -0.54804962596566
H        -0.06167825451025       1.20975865949765      -1.18316847439207
H        -0.15863749148869      -0.49954180012431      -1.61864650799608
H        -2.63590227171310       0.93732440136215       1.58825757858078
H        -0.95873392828238       0.58211879788078       1.93727265716275
H        -4.68780513706183       0.51746191762815      -1.53229691266405
H        -4.29510322432837       0.95506323087928       0.14806476568375
H        -3.44023046250673      -1.13680860445070       1.73865499563344
H        -3.33824765046081      -2.71919090380888       0.92685095159807
H        -5.27361350215828      -1.29352396643879       0.13272755446845
H        -4.16583665984130      -1.83178651235689      -1.17763526261902
H         1.06571385500243       0.56425720557922       1.01628565464112
H         0.97057417632230      -1.16654395946062       0.51867907034383
H        -0.24247550480580       2.59932005980334       0.59248364318627
H        -1.98364273340752       2.93419430064544       0.19912931339791
H        -1.41106375778020       2.98759038634094       1.88338550076325
H         2.40659699941653       1.09131254714738      -1.00431003158525
H         2.30455251869606      -0.63074491959718      -1.53257205351813
H         3.48530993443416      -1.35288154071047       0.54827255144994
H         3.57030120480060       0.36229145202576       1.10618957367877
H         4.83397273593173      -0.74220093000287      -1.49311290733406
H         4.93194867398568       0.96086666664310      -0.91019299406905
H         6.03627507380009      -1.52188678708866       0.55754701385330
H         6.99448926212146      -0.29657100447056      -0.35481614967483
H         6.12950289619444       0.18700388728669       1.15208116828782
B        -0.46846053996163       6.07569539514687       3.49550432762893
F        -1.45169530600845       6.67634403664390       2.66511634300622
F        -1.05215254945335       5.72285046154822       4.74116590567300
F         0.59342203748758       6.99292454171634       3.71252776683196
F         0.03894677318910       4.91079000883606       2.86330547454208
