65
C19H25F18N2P optimized with ForceField in AMS.
N         1.32472279822028       2.24244614055562       0.10276545650740
N        -0.87271098644016       2.43177793321322      -0.18668556092170
C         2.70657752780892       1.82083864171465      -0.11703140421864
C        -2.20501141549472       2.26753810311407      -0.76720730711528
C         2.96071022985996       0.43835425631918       0.49984915353349
C        -2.47907117837536       0.79635150392476      -1.11447195080174
C         2.12151020291779      -0.65509337127390      -0.17798258839042
C        -2.42913078171647      -0.10854229193635       0.12592589177887
C         0.30473953082500       2.13254788006708      -0.77030637456407
C         0.77701570482911       2.63378682161371       1.27096621414268
C        -0.58494931384809       2.75812714744264       1.08965471680244
C         2.48178206526838      -2.04376635548546       0.35896776900622
C        -2.64412837262053      -1.57719982484627      -0.25463291974683
C         1.61720567895181      -3.12220285608379      -0.28847337036738
C        -2.56810451596526      -2.48038840358072       0.97308391313213
H         3.39454469875950       2.56357639292311       0.34158979578857
H         2.92760687604100       1.78982333243510      -1.20676314276209
H        -2.27846980260704       2.88278285661883      -1.68957913926433
H        -2.98021458464833       2.62975997855092      -0.05642097149399
H         2.73128145275458       0.46829920460099       1.58745370642543
H         4.03782678685907       0.19649261918326       0.38563339591058
H        -3.48627323644901       0.72403439984572      -1.57964096787177
H        -1.73413467304042       0.44993289446190      -1.86355732286423
H         2.29728657744577      -0.63019094844513      -1.27609592785457
H         1.04303204888638      -0.46502854321018       0.01209697338036
H        -3.21656281590480       0.20915539208614       0.84433287011595
H        -1.43971824566529      -0.01119772581435       0.62276924958035
H         0.40827445503434       1.76913250074448      -1.78539256994530
H         1.31934407523284       2.76720373580768       2.19802647431643
H        -1.31572032851635       3.00677162485115       1.84829475550812
H         2.32801851280678      -2.07213350177827       1.45974208234378
H         3.55107512779076      -2.26209033835906       0.14557842527153
H        -3.64032517732064      -1.69949273916501      -0.73275679674172
H        -1.86278909432977      -1.89377003257022      -0.97987707332991
H         1.76813032258896      -3.12868053338149      -1.38907217278637
H         0.54371316939882      -2.94077423532564      -0.06771141305784
H         1.89921784114930      -4.11742061241377       0.11481280832573
H        -3.36418749166947      -2.21113805633718       1.69949415733892
H        -1.57598175515706      -2.38329418027663       1.46376710771198
H        -2.70925975547832      -3.53799216034394       0.66592112541705
P         8.51355286061696      -0.92306725737393      -0.20776873077768
F         7.03549360769070      -1.69506136279630       0.23291507613029
F         9.19467210298683      -0.16563229544646       1.18204780625388
F         7.97506640545221      -1.87763378640274      -1.53398069827331
C         9.24794068555187      -2.38268376326622       0.82716837844156
C         7.22574802620650       0.51375586825027      -0.06110097639090
C         9.69753153906569      -0.26379731628150      -1.57037812195316
C         9.11005840082971      -3.78818884296431       0.20335593992446
C         7.75423150083731       1.96394546564114      -0.19682668875505
C        10.71228933209587      -1.25044646876344      -2.17772463074982
F         8.60684042136936      -2.42878951462022       2.05982140191388
F        10.59303155195163      -2.16658487950261       1.08384181867014
F         6.60198282075066       0.44925661377476       1.18123808209938
F         6.25722273641987       0.34053257522793      -1.03845890848655
F        10.42199497513296       0.78873961386881      -1.03998416839700
F         8.94194727150842       0.22187117162608      -2.62531743363462
F         9.61513170949073      -4.72308435191746       1.08981427251977
F         9.82484981036349      -3.88912960915431      -0.97010065111147
F         7.78710309897885      -4.10641565518494      -0.04341997989448
F         6.74007461695379       2.83741500654328       0.15596408898110
F         8.82735082144703       2.20908847532858       0.63867989757555
F         8.11119684948648       2.25878595703217      -1.49648196993822
F        11.50145731895833      -1.82955017130473      -1.20811325719378
F        11.54691393504442      -0.55415347046189      -3.03443474313049
F        10.07776266132809      -2.22928971839885      -2.91990323496333
