51
C13H28F2N2O4S2 optimized with ADF in AMS.
N         0.78704481367853       1.18031872843928       0.25130924491615
C         0.77623949880931       1.71204604074862      -1.17616734974873
C        -0.09065892774159       2.06902458556971       1.10900193211497
C         2.22871486921030       1.27492256369444       0.74064708837958
C         0.28421500884246      -0.24849390456018       0.31962640827159
C        -0.61973338127328       1.84395551779687      -1.74991850131585
C        -1.50352703537021       2.23196827608699       0.56545602366015
C        -1.49422386605050       2.74102817638490      -0.87576038722534
C         2.50126068255084       0.67007502702915       2.10513400609070
C         1.10026948694497      -1.25315021519661      -0.47279718886683
C         3.93774516393215       0.99842481785749       2.52503560698274
C         0.53116754572384      -2.66343727106029      -0.31116041235452
C         4.30884599711697       0.36000886456451       3.85793849625761
C         1.33655541527777      -3.67959848277688      -1.11688765343425
H         1.42353587391772       1.05234252873191      -1.76227195964203
H         1.28500748603636       2.68601551205364      -1.13132262241035
H         0.42296746560418       3.04279217491094       1.13910894458136
H        -0.09380845789986       1.64412211194279       2.12217252947257
H         2.47241287434548       2.34699266133017       0.72352111133728
H         2.84868244280042       0.80991690110304      -0.03714266519631
H        -0.75286228466353      -0.23712775659118      -0.03830130923854
H         0.26340044687716      -0.51133122659714       1.38842245448652
H        -1.08907599348909       0.85355121914905      -1.88611111115907
H        -0.50325339521897       2.26757459597901      -2.76087224469720
H        -2.02513403578414       2.94129546687060       1.23001159175744
H        -2.05934941563043       1.28205470162725       0.63761688194149
H        -1.08600005522473       3.76855207166010      -0.89545951517132
H        -2.52218318018380       2.79475824327105      -1.26934747451698
H         2.38081323432831      -0.42703086060925       2.08121721184215
H         1.80929217514827       1.06119634533639       2.87216240425443
H         2.15279906822567      -1.24947320671456      -0.14989512861046
H         1.11403204279098      -0.99013603586880      -1.54157495702698
H         4.05460356086129       2.09475346445938       2.58367788994033
H         4.62992706679260       0.66310562337506       1.73483705453159
H        -0.52486122872709      -2.67926900819565      -0.63862243614002
H         0.53292379467024      -2.94558181490688       0.75801029439865
H         4.24269929923764      -0.73875515231871       3.80243040054005
H         3.63848271225286       0.69851228171722       4.66513089682386
H         5.33883551032326       0.62013426475462       4.14359857501701
H         2.38978691422243      -3.68808298023625      -0.79468958049816
H         1.32395834245541      -3.42673369419846      -2.18877481785936
H         0.93344402430374      -4.69537818455932      -0.99838758872045
N         5.00089682277960       1.99613437878266      -2.99309463870122
S         4.90546568651831       2.89121647255935      -1.66654204614863
S         3.90203778588068       0.88527772800379      -3.31769990353825
F         5.30191296193648       1.80312776037603      -0.45864851156906
F         2.57614661691312       1.78107427265386      -3.80990824795184
O         5.99626782272158       3.83699326818763      -1.66116895136688
O         3.56274163831050       3.31701055907479      -1.28036971244023
O         3.37018778300000       0.15343557383659      -2.16529650794319
O         4.29509224771578       0.15597801507124      -4.50059513300621
