37
C9H20F6NP optimized with DFTB in AMS.
N        -0.34483459554210       0.41894706037528      -0.00825352040092
C        -0.64620708004460      -0.80294594069051      -0.81767689370562
C        -1.22238651419011       0.24971450561923       1.19007392390761
C        -2.14208555872338      -1.06340271435247      -0.62658996502065
C        -2.53952038281567      -0.27633707691693       0.63291319844082
C         1.10012564390938       0.46360352016205       0.41441174814855
C        -0.73281058613679       1.64200570193805      -0.80861307140772
C         2.10192742851279       0.28563440358007      -0.72443016793947
C        -0.89810770068827       2.91264470200221       0.00744182879129
C         3.51817404917061       0.35052849257974      -0.15268398423504
H        -0.05221099432207      -1.62580073467070      -0.41451621039912
H        -0.36768625055980      -0.62933324106607      -1.85651444023636
H        -1.30877178792286       1.19175968876909       1.72763179836189
H        -0.75464883960147      -0.49281666151572       1.84046874576544
H        -2.31989459094179      -2.13263288959890      -0.50004429927233
H        -2.71328807399064      -0.72578950935676      -1.49302202712975
H        -3.21091118765835       0.54676569848933       0.38123378289695
H        -3.03767037530351      -0.91100334353706       1.36707811392357
H         1.23533048655772      -0.33605853447670       1.14867596078710
H         1.25830959453417       1.42298296119376       0.90840058280854
H         0.04709508938225       1.78057098952285      -1.55753624693615
H        -1.66746549653014       1.40455080324679      -1.32123621795591
H         1.94986418383205      -0.67886075271471      -1.21861392091357
H         1.98498528545992       1.07698206182037      -1.46565084377651
H        -1.83749397490010       2.92058853086338       0.55941022184685
H        -0.06781220037603       3.06750045314593       0.69112066992116
H        -0.89937430666396       3.74749835319898      -0.69260301472788
H         3.69103532572730       1.32036467610617       0.31060331318206
H         3.67288919404030      -0.43363473320104       0.59006347271258
H         4.23804355852481       0.21978365329592      -0.95913084105555
P         2.49907451255374       4.25652793231153      -0.62420353423830
F         3.82143056309053       3.34093887311566      -0.96444441529194
F         2.17500951376095       3.23594666596953       0.68288821436618
F         3.36810946396622       5.22372096401950       0.35153154787565
F         1.11558065464874       5.08332846022695      -0.26988219599673
F         2.77396878190419       5.20455775607071      -1.91604592040245
F         1.57713867223594       3.21807628317451      -1.58750681249432
