54
C14H20F18NP optimized with DFTB in AMS.
N         1.39958978710405      -0.56565339401540      -0.30537222795083
C         2.34967907105306       0.02415289809358       0.70931821953937
C         0.04393639868492      -0.81844363635348       0.29534440759807
C         1.95067908105904      -1.88593481271237      -0.78932841333859
C         1.25493269732852       0.41926330111409      -1.43910744777889
C         2.53903142786359      -0.79304339863268       1.97565838472581
C        -0.60515931754637       0.37710932642375       0.97732443340967
C         1.20300487686221      -2.52707625026937      -1.94600539893592
C         2.52612077310189       0.69432339111121      -2.22724552195031
H         3.31180785856164       0.13042124204081       0.21040725450352
H         1.97652821207759       1.02117405888016       0.95364223193386
H        -0.60082141458300      -1.16503757237738      -0.51515883324524
H         0.16037841326742      -1.63280365091536       1.01400797667696
H         2.98447263325682      -1.71526878437370      -1.07922120758442
H         1.94513645619611      -2.56294752523808       0.06655499492298
H         0.47721761597881       0.03108601230548      -2.10103776561270
H         0.89505866819433       1.35183888985367      -0.99869834520068
H         3.28417900441813      -0.27391396620145       2.57839305253911
H         1.62262959513238      -0.87858350066662       2.55748669515478
H         2.92249343992709      -1.78706473958450       1.76008833010238
H        -1.58463862852590       0.05614665795617       1.33205951960012
H        -0.03031252657033       0.71873879884176       1.83556140970354
H        -0.74985483947417       1.21014226625522       0.29211395866743
H         1.72289605869117      -3.45847027202682      -2.17261444876051
H         0.16958828411940      -2.76313156773389      -1.69692035593419
H         1.22504304283202      -1.90849325096602      -2.84090800974611
H         2.26978270850089       1.40039913131453      -3.01709634124824
H         3.30002322436392       1.14331372369670      -1.60929683950223
H         2.92402433440695      -0.20396362759565      -2.68969991068026
P         6.31259455772127      -1.56279374863941      -1.22314224868862
F         6.11810778579167      -0.35316812543877      -2.36851450699682
F         7.75034891877618      -2.01177063959511      -1.91100353736508
F         4.79937362390667      -1.13907822578023      -0.47121140299628
C         7.13327672413649      -0.13651634315694      -0.14462241414450
C         5.21832575055921      -2.65835796438311      -2.45428823503455
C         6.55801175000536      -3.04465067574315       0.10337390908796
C         6.21886273830338       1.06442682896620       0.24857239443364
C         5.90620978867916      -3.40734613442233      -3.62331046984411
C         5.57312930630034      -3.16714938057175       1.29479965419440
F         8.16431595239266       0.37341789340586      -0.83245735631081
F         7.61509910860196      -0.58163976242110       1.03082854852701
F         4.30506187786883      -1.84558373630078      -3.04422165680625
F         4.47704140419023      -3.55792249586899      -1.77085939487476
F         7.79293250367737      -2.98341825381709       0.62857927482196
F         6.49489895519328      -4.21416120401830      -0.56559284952552
F         6.95542175396373       2.09472852532214       0.65679725309879
F         5.40710157624612       0.72761779086789       1.26098971896200
F         5.43796610541563       1.49938775259402      -0.74302938114073
F         4.98452995776414      -4.05525141975240      -4.34697312991262
F         6.52020981506220      -2.54516565601166      -4.42628510593816
F         6.79077441828962      -4.29925114641022      -3.20062106213950
F         5.92565411531870      -4.14488264474066       2.12407167115272
F         4.32676076968787      -3.43001259825581       0.87199575494657
F         5.51589732306576      -2.03504198175266       1.99860906598482
