46
C12H14F18NP optimized with DFTB in AMS.
N         1.83917580951097      -0.76753141968048       0.92026981913972
C         0.88513708904015       0.38306681328275       0.93441132475981
C         1.02561536233878      -1.91379167682789       1.43905912667214
C         0.05290890545769       0.19375214353938       2.20005052166585
C         0.12245720931926      -1.31054066797928       2.51143772719147
C         2.99667652522355      -0.50066490895863       1.81749799992437
C         2.34675849138409      -1.02956951392472      -0.45090866144748
H         0.26353143931223       0.30772719922873       0.03918967495662
H         1.44259181366622       1.31973878793778       0.91008859389462
H         1.69024461496528      -2.68737418569249       1.81857946772720
H         0.44515846990857      -2.31163309163139       0.60457975530348
H        -0.97300680034977       0.52329818083279       2.02866127243470
H         0.46429158892256       0.77961490567934       3.02442220612758
H         0.53692782790702      -1.47914223717417       3.50702339586883
H        -0.86514257074088      -1.77267906635819       2.47329095303536
H         3.49956073537550       0.40443609067700       1.48210451630182
H         2.64469330438176      -0.37667421250091       2.83836791477758
H         3.68002097936404      -1.34361687105926       1.75849268331158
H         1.50972254810561      -1.25600253213442      -1.10783218826066
H         2.87335711958135      -0.14455037147288      -0.80303585953151
H         3.02702959019097      -1.87615958468040      -0.41245804428524
P         4.78569834908590      -4.52742941200751       1.07222086619627
F         3.82824430724640      -5.67819434141453       1.82215673301001
F         3.40649939137422      -3.46841104723168       1.01985838861220
F         6.14105169802681      -5.48959399909745       1.09999505261838
C         5.21711306492420      -3.87091404357870       2.87086796625088
C         4.21200411509217      -5.37708490132881      -0.59915203653317
C         5.75608435977575      -3.00691743348626       0.18277717894713
C         5.04073011845805      -4.84570099468200       4.06740078710869
C         2.76095545068995      -5.11370333692940      -1.08484438361973
C         7.23433069051582      -3.10193181913458      -0.27702797759029
F         4.47505677196310      -2.78057739951050       3.19582804764461
F         6.50215758494985      -3.48144081657807       2.87684179013862
F         4.31881921082726      -6.70434363896005      -0.43877949239157
F         5.02176205161655      -5.04172647309089      -1.61934906269461
F         5.68687368239682      -1.92667362395572       1.00215807184199
F         5.03681967102134      -2.65522279955490      -0.91326461391658
F         5.63236737970838      -4.33734748563122       5.15244180732598
F         5.57462625409672      -6.03486420261411       3.83106689681243
F         3.74886226798362      -5.00233130505540       4.35618919002135
F         2.45539430383050      -5.89810759011737      -2.11484537832329
F         1.86272180147376      -5.32950239999738      -0.12654495510821
F         2.60835342504374      -3.84300620488356      -1.49400652288995
F         7.57765233781601      -1.98290564432799      -0.92547528175933
F         7.42527913446168      -4.12492655659044      -1.10033571073039
F         8.05224581205662      -3.23798681844399       0.75935384376078
