31
C7H16F6NP optimized with DFTB in AMS.
N         1.16665479436996      -0.25548961773313       0.11410525652035
C         0.60448597549757       0.60243470421082      -0.98273255152071
C         0.49249260731818      -1.59655987064911       0.11273827277685
C        -0.90780097869708       0.75356724450444      -0.88628405050358
C        -1.02216576764083      -1.48776025040135       0.22882287734531
C        -1.59358065553486      -0.61188286153351      -0.88515215646420
C         1.02690355946364       0.40981941115612       1.43523760466679
C         2.62120667639092      -0.45845425801859      -0.14521628325316
H         0.87316366645347       0.12140407641453      -1.92506705064145
H         1.10101592721606       1.57359043508338      -0.92043275896425
H         0.90958072596281      -2.16977548354523       0.94417552633973
H         0.76159638972534      -2.08109025285166      -0.82754666628250
H        -1.23165536645482       1.32568468663777      -1.75945423286819
H        -1.18673550166867       1.32272389346992       0.00624384948627
H        -1.31137507056781      -1.09656630131682       1.20950045941701
H        -1.42593865181746      -2.49981267475517       0.14321476857664
H        -2.66857077962158      -0.48402554729041      -0.73867856417456
H        -1.43145854188405      -1.09976634381798      -1.84923668951467
H        -0.02287120999584       0.57111788593217       1.66458834617910
H         1.47416661412565      -0.22684444337717       2.19668769583918
H         1.54555870299797       1.36638622343191       1.40224820043701
H         2.74356650689399      -0.94249697850653      -1.11069018922514
H         3.11505878125677       0.51135618997944      -0.14886698919246
H         3.03334895986369      -1.08668935044525       0.64210047073645
P         1.81996246203248      -2.16365430596729      -3.63898212919017
F         2.28477887831727      -2.73483869090388      -2.12523301960817
F         3.28389379173502      -2.53459699263899      -4.23218816623252
F         1.22376128042856      -3.62923946579664      -4.00782604648553
F         1.32895482034281      -1.53752110654393      -5.05516296269383
F         0.34011866612550      -1.74161475532461      -2.94379906534316
F         2.38959523156534      -0.65182819540326      -3.16930521776243
