33
C9H10F6N2O4S2 optimized with ADF in AMS.
N         1.86336753121825       0.43995074179530      -0.03037058786136
C         2.45538285593497       1.77807639968294      -0.32250362926414
C         0.89931662969678       0.32965876610482       0.91524843183224
C         2.31648990256616      -0.64913923585434      -0.68902087685067
C         3.07614172501865       2.42652832657628       0.90129263832886
C         0.34564116835861      -0.89405153670548       1.21457531589579
C         1.76444310564407      -1.89571424363919      -0.43967995558244
C         0.78448892944099      -2.02905415426832       0.52885876609127
H         3.22537907892948       1.60755416241799      -1.08567891745827
H         1.64627398573247       2.38956397003613      -0.75360600015464
H         0.61358140693555       1.24862422184853       1.42049998708667
H         3.12482489374766      -0.48178922159630      -1.39706750121749
H         2.34068409509851       2.63225158735825       1.69215008480276
H         3.51214322037404       3.38751752164915       0.59109939628864
H         3.88288934057513       1.80452331905914       1.31078451123807
H        -0.40921618272053      -0.95911554076218       1.99757996685189
H         2.16836751077101      -2.75969092011923      -0.96487504531633
H         0.38247353652490      -3.01279176612274       0.77382457925758
N         4.55400465405768      -1.29392036122094       0.62914515646009
S         5.72725847562282      -0.25598918221560       0.24679490712815
S         4.48062101877838      -2.19300819414128       1.96633313270381
C         7.27169407917440      -1.26603509557162      -0.20000743298354
C         3.95617844455265      -1.03968517806815       3.38124802697925
O         5.31167263467517       0.32840004105278      -1.03479612648511
O         6.15373727366115       0.62531198609172       1.32860353290914
O         5.74520673003347      -2.75421916118084       2.41287878632988
O         3.30041613952409      -3.04121987588009       1.80664216973666
F         8.07155391795580      -0.48823397203291      -0.96761253314493
F         6.93384701376857      -2.36988231546981      -0.90478130353303
F         7.94905236962598      -1.63111107626752       0.90004933122446
F         3.39618772476469      -1.78430678130291       4.36333845179152
F         3.01806680982484      -0.14021319928322       2.95516108866836
F         4.99335388263359      -0.35815705617038       3.89598309164684
