65
C19H25F18N2P optimized with ADF in AMS.
N         2.45384959505326       2.05882644730884      -1.54995176400218
N         0.47773821050646       2.85139644121792      -1.13123397674890
C         3.54528910118696       1.34747993441514      -2.23899480360182
C        -0.95508550769455       3.15403223622108      -1.29694993041221
C         3.58217056211823      -0.11890246969100      -1.80989233383007
C        -1.78175872095382       1.87274586925905      -1.35625789995292
C         2.29714172680335      -0.87491508394596      -2.13684152724684
C        -1.60685773184671       0.94851660417173      -0.15526081322836
C         1.26266419935861       2.34371617507313      -2.09253942496019
C         2.42550369487638       2.37903771580227      -0.20823591575360
C         1.18210015384321       2.87890811944903       0.05431784022830
C         2.29682976190178      -2.31356588699950      -1.62621564123883
C        -2.36902712875457      -0.36463713555510      -0.33511878004200
C         1.00712887510592      -3.04634441551808      -1.98996645174115
C        -2.17338369002868      -1.32530351936891       0.83332354546829
H         4.47967727575236       1.87535195545365      -1.99580427158283
H         3.35682887501931       1.44509330679397      -3.31648710243548
H        -1.06103804202927       3.74165258375002      -2.22049183242254
H        -1.23723462922860       3.78766655221390      -0.44319805099867
H         3.79986498555539      -0.18196356733084      -0.72740389247690
H         4.43809702590110      -0.58375901891712      -2.33013920950870
H        -2.83948108378795       2.17158354321954      -1.46192527749546
H        -1.52442019796197       1.32848714511861      -2.27656291440527
H         2.13304068775605      -0.86326872526307      -3.22698135178697
H         1.43116559421377      -0.35048747432559      -1.69170218922688
H        -1.94081085251659       1.45426391383440       0.77119875827095
H        -0.53518953793622       0.71290036180874      -0.01620009451304
H         0.98527538426955       2.14532106329594      -3.12429307510492
H         3.28292086210526       2.23160181203048       0.43672148539284
H         0.74249497692409       3.24887861493162       0.97238679277903
H         2.43439148024462      -2.31345794941678      -0.52834916400933
H         3.16408518982039      -2.85298365621881      -2.04839167012144
H        -3.44419390756769      -0.14648877410144      -0.46793376060477
H        -2.03453038853713      -0.84099566921520      -1.27319067882227
H         0.87200636134890      -3.08190884618226      -3.08245708612815
H         0.12948994509152      -2.53074074920504      -1.56772102655784
H         1.00851266975647      -4.07872297746523      -1.60953891895173
H        -2.53443547236269      -0.88343927321839       1.77644946639942
H        -1.10705974591141      -1.57237687836360       0.96426207882551
H        -2.71730393826005      -2.26793602667655       0.67152881271808
P         0.94619934433477       1.17376862295239      -6.24001013391330
F         2.12945973538661       0.12949462798910      -6.74759303805302
F         1.34111949648503       0.93132815567763      -4.58986675133320
F         0.52181544865495       1.48342554386339      -7.80213847178260
C         2.40694376758534       2.50089521277890      -6.23860824707773
C        -0.21234550475452      -0.49812087510356      -6.08542929811899
C        -0.60457998554245       2.38279055627954      -5.70375896610337
C         2.94558952522739       3.04917886490223      -7.59602675474373
C        -1.30885636738378      -0.79016710093404      -5.00040667512287
C        -0.69447329960077       3.94786143166669      -5.72737424105325
F         3.51891392645150       1.94118338208301      -5.62599610272260
F         2.09665002820805       3.60822320001333      -5.46858965414306
F         0.66259565955846      -1.54778531813369      -5.85751283665112
F        -0.82981071911673      -0.73598427641929      -7.28813018062426
F        -0.98963388067745       2.08335453783728      -4.39047622104605
F        -1.63596536715881       1.98634032837431      -6.51747237374835
F         4.01567719240063       3.86324841111129      -7.35021830155056
F         2.01911768014952       3.78201427015258      -8.24857030030084
F         3.36074100273398       2.05157492894361      -8.40272836034908
F        -1.66626942799743      -2.10245457951041      -5.08631515100964
F        -0.82935492985009      -0.59391886754624      -3.73822630776779
F        -2.43967534784727      -0.06901217341059      -5.14380045198396
F        -0.11937609988691       4.50373786911958      -4.61967261629872
F        -2.00772062822851       4.31585805454317      -5.69312896665259
F        -0.14353739206655       4.48487661487919      -6.82693833171947
