32
C10H14F3NO3S optimized with ForceField in AMS.
N         1.09452647061579      -0.03348126013697       0.41732498596238
C        -1.28876030410980      -0.01047542874497      -0.19722150910057
C        -0.27351913886176      -0.02611093065591       0.94970088158036
C        -2.72499277581220      -0.00876644778633       0.33704020662458
C        -3.73743343994691      -0.00089637686587      -0.80458226041170
C         1.69359804977356       1.14728241976376       0.07246754056980
C         1.76015353567522      -1.21901666700842       0.26404401669726
C         3.00098473137288       1.16262128873598      -0.41980877788754
C         3.06685855473847      -1.23986544951794      -0.23039747274753
C         3.68988344976302      -0.03981397483472      -0.56926111273461
H        -1.13105080409810      -0.90913327175545      -0.83347093743961
H        -1.12444080859879       0.89616366830516      -0.81999177879662
H        -0.44573546864816      -0.92255060926823       1.58696119042154
H        -0.42252209126018       0.86325936064118       1.60238045039214
H        -2.89407796492092      -0.91350954175403       0.96094671602681
H        -2.88807625755554       0.89133108420173       0.96912146899732
H        -4.76696459218527       0.00087798395442      -0.38873522046376
H        -3.60575826079552       0.90711342071825      -1.43090974240237
H        -3.61192657349864      -0.90502384184756      -1.43782261982757
H         1.16515215586969       2.08611593632687       0.18939455322932
H         1.28063957963164      -2.15681048928504       0.51823911383599
H         3.47518719514635       2.09980782413085      -0.68092411394110
H         3.59067089080515      -2.17941163013629      -0.34948903450497
H         4.70366824082987      -0.04185659966508      -0.94900419435508
S         1.80204396933863       1.27961560949917       4.33792631844285
O         2.15881162119400       1.94522448388156       3.00154745593756
O         1.70434492593258      -0.20890987244407       3.97105940803006
O         0.33598986301013       1.68735319261878       4.54727619960408
C         2.92535642899298       1.67703233003751       5.70758888801435
F         2.98035498279003       3.04758897938190       5.87524615469704
F         4.18972756372528       1.19925344191055       5.42033770190184
F         2.46493834278651       1.08983220489920       6.87046119074774
