78
C22H36F18NP optimized with DFTB in AMS.
N         0.50628218284792       0.99524640733826      -0.90840777265649
C         0.82636529667703      -0.40462541525829      -0.46174689149897
C        -0.94126352857525       1.28275431141477      -0.61192558178106
C         0.79402196728353       1.09156717296505      -2.38862562583853
C         1.35686779395974       2.01168343701421      -0.18449144276477
C         0.68416772018068      -0.66737706643483       1.03642460320945
C        -1.42733925130285       2.65337700032978      -1.07647739989651
C        -0.16520046495115       0.32255307185237      -3.29433612253023
C         2.85875158902724       1.74011338097379      -0.20158167184572
C         1.18529837810128      -2.08380185693537       1.34839903171108
C        -2.93966550306177       2.77481319653148      -0.85590053158378
C         0.42477977593541       0.25591567089899      -4.70990952649748
C         3.58545199880773       2.92918418689184       0.44190852865749
C         1.04923345118484      -2.39832228745283       2.83638126146142
C        -3.44106480379254       4.12997313075305      -1.35131530163290
C        -0.54276166523863      -0.42663407658038      -5.67323940895998
C         5.09443210563208       2.69966838610544       0.45526738638726
H         1.85057690796794      -0.61203920012997      -0.77914481814879
H         0.15891792738397      -1.07477758571817      -1.00776683434934
H        -1.06748897823245       1.20207436664084       0.47000921215810
H        -1.52892326197135       0.49237875233073      -1.08537765604207
H         1.80878921324999       0.71877002363449      -2.53065525798875
H         0.78175348250702       2.14794035010100      -2.65505708035156
H         0.99258574327797       2.06441381208849       0.84433486960767
H         1.16754707531671       2.97031264592723      -0.66584216123587
H        -0.36178030719505      -0.58314407586820       1.34301543123420
H         1.26666160863074       0.05189193172717       1.61616875294058
H        -1.21383832581467       2.79953424379999      -2.13544686661375
H        -0.92241206802016       3.44276664194171      -0.51691423704634
H        -1.13547133919902       0.82499198356884      -3.33469742325269
H        -0.32718246073999      -0.69557018234522      -2.92796156452629
H         3.21173478320995       1.62682616910027      -1.22723621533666
H         3.09936560704206       0.82723456437979       0.35054966653741
H         2.23517535616979      -2.17023897678539       1.05046124297074
H         0.60937494189278      -2.80993580290441       0.76545192139361
H        -3.16600314985335       2.66263462679446       0.20984007484884
H        -3.45358337168127       1.97209773650364      -1.39562704998570
H         1.36811240190204      -0.29891900178515      -4.68264534884115
H         0.64148850357482       1.26628543772836      -5.06435358288091
H         3.22091780623098       3.06945057416008       1.46549069516062
H         3.36024898587256       3.83584763359955      -0.12571865254208
H         0.00537522197431      -2.33884675419302       3.14638180970629
H         1.63010029152337      -1.69233739051304       3.43080570334579
H         1.41499501391203      -3.40507768055391       3.03598686429209
H        -3.24505596212084       4.24051190022512      -2.41801606020754
H        -2.93808573794792       4.93928600116377      -0.82168300861393
H        -4.51418155908956       4.21400672615144      -1.18176300431697
H        -1.48308193403213       0.12358602039428      -5.72515552743851
H        -0.75363658923185      -1.44744556398455      -5.35027352334719
H        -0.10503951113363      -0.46028304756724      -6.67042731634136
H         5.46837187665819       2.58781691099678      -0.56235543875178
H         5.34300704841780       1.80067610640451       1.02165060481588
H         5.59213160040067       3.55224533995456       0.91634946997946
P         2.53657596878255       4.48545352432491      -3.88513138448799
F         2.38484801923462       3.76950873328510      -2.33035462794667
F         1.82977430468440       3.07284020582539      -4.51484681921486
F         3.23746774346167       5.86427345787007      -3.23889232056238
C         0.75080338961775       5.22382201055721      -3.46059548034690
C         4.32579387600590       3.66323431034824      -3.88579034626500
C         2.61011570170459       5.15276140016771      -5.75027730551596
C         0.51497778824439       5.93156559015891      -2.09303055913575
C         4.46400744387371       2.16792191924192      -4.27374000377287
C         3.09213299852905       6.59746824168028      -6.04411460682897
F        -0.15659452478813       4.21350063182385      -3.47647905721887
F         0.35373613309033       6.12220561934464      -4.37478748300741
F         4.82715920445232       3.74656187944572      -2.63530582801121
F         5.15979241746697       4.35869827505317      -4.67456267625197
F         1.39073147650572       5.01705562823895      -6.30340898649342
F         3.42405677811865       4.32271836244942      -6.43335848252887
F        -0.75848370511271       6.33929294043123      -2.03237233895176
F         1.28981622102813       6.98737152839583      -1.91577312385128
F         0.69275590780575       5.10281587121509      -1.05183838676917
F         5.72601522407668       1.76207187683841      -4.13315638419569
F         3.71656366215879       1.40531627595846      -3.45204965879302
F         4.08483801245298       1.91128487556276      -5.51561620622100
F         2.94732581564224       6.88589510382592      -7.33776295563404
F         4.37578281018771       6.74029244123814      -5.73180080471372
F         2.39175157750829       7.48795188224242      -5.34498428685350
