53
C17H32N2O2 optimized with ForceField in AMS.
N         3.02884694814494       0.91255426684297      -0.03768743476000
N         2.90008138035429      -1.29935713733996       0.16171718017960
C         1.44738478060152       2.79553126424256      -0.25714307067120
C         2.81695372522681       2.32787421699113       0.25852105750132
C         1.00685822156043      -2.62686519886024       1.03291347304649
C         2.50585449403685      -2.60336284070058       0.69229362558354
C         0.29164515096083       2.10040432541413       0.47866302525836
C         0.13371441591496      -2.30928740518407      -0.19184038875005
C        -1.06952975126300       2.54362030896748      -0.06645895467318
C        -1.35591091903176      -2.29928790805203       0.16613196825731
C         2.84071330916144      -0.11862809093416       0.80893519101388
C         3.22221557758741       0.36629362067026      -1.25524604375467
C         3.14962111025771      -1.00527248394669      -1.13054242244072
C        -2.20792288863475       1.85329136663030       0.69471917803994
C        -2.19509838291098      -1.80625350661452      -1.01998853134298
C        -3.56343641873520       2.15955757578250       0.06678927353340
C        -3.67610600378089      -1.73320750102816      -0.66232447458807
H         1.36828128862239       3.89396158220497      -0.10521634933674
H         1.37598579464922       2.59574174492740      -1.34888938986434
H         0.80440970594958      -1.88829772318293       1.83918167288475
H         0.74517275247259      -3.63539126332177       1.42044679356648
H         3.61928809994473       2.92571379353745      -0.22495051421682
H         2.88266707008053       2.50271995619027       1.35509287259550
H         3.09825081919908      -2.82082117431065       1.60701812310074
H         2.72671207050540      -3.39983095742899      -0.05168590737204
H         0.35191418141071       2.33610402634055       1.56386971647469
H         0.37617965998968       1.00021091663686       0.35255390484151
H         0.31922094206612      -3.06501234099829      -0.98629494357855
H         0.40581452541589      -1.30887680132574      -0.59080294296936
H        -1.17320195735251       3.64620419672835       0.03818352978365
H        -1.13166032856952       2.28173324205058      -1.14596207071265
H        -1.52200214415546      -1.62791633227166       1.03682275333653
H        -1.67419165656725      -3.32696079810448       0.44848593273872
H         2.57167277107406      -0.00834268546388       1.85256305284901
H         3.34235138938122       0.92317320413990      -2.17507252776381
H         3.19295331822379      -1.72715129627138      -1.93541074129733
H        -2.05406981665585       0.75414815440647       0.68663733030841
H        -2.21140462277771       2.19549330372344       1.75236611204520
H        -2.06431141814967      -2.49458327730538      -1.88314899968173
H        -1.85442283402003      -0.79273617196205      -1.32654292257229
H        -3.76081241968928       3.25221195507054       0.08895876760724
H        -3.59097472336012       1.79956092449984      -0.98387002002179
H        -4.36161451889358       1.64045213073190       0.63833321964528
H        -4.24734020542675      -1.34423333531762      -1.53147916820531
H        -3.83363460946984      -1.04905563714822       0.19825587720144
H        -4.06056044975451      -2.74253071051024      -0.40444036533356
C         6.68091639197236      -1.04005170101345      -0.57461639347461
C         6.62138425999352       0.11914871110726      -1.51876710224124
O         6.48404165659170      -0.06900138526303      -2.71704424262247
O         6.70700256175824       1.25884246637626      -1.09077280828290
H         6.55302143204487      -1.99835493953126      -1.12205785661685
H         7.66288113426141      -1.04844486443186      -0.05726055405240
H         5.87319607988438      -0.94894420289008       0.18106156860467
