58
C16H22F18NP optimized with DFTB in AMS.
N         1.70561098110996       0.63765406132058      -0.29754105053148
C         1.58640302371763       0.95925510017046      -1.76103022918830
C         2.20000878873266       1.92094707337001       0.30548364611599
C         2.71008079967906      -0.46129869311966      -0.10734954189574
C         1.21856352413205       2.43864818315982      -1.85440457024063
C         1.51770917251895       3.03604215803842      -0.47364608033825
C         0.36697556477417       0.30620128248646       0.29193682112332
C         2.99347509807017      -0.80163486848190       1.35264168499147
C        -0.21424320286742      -1.02722199756090      -0.15557272676346
C         4.22163096979189      -1.71916425919372       1.42085373874954
C         4.55931830628381      -2.07999452679452       2.86489651160499
H         0.85150855782159       0.30075493322956      -2.22242252110404
H         2.55952608414590       0.77679136234364      -2.21433512794791
H         1.97808120943544       1.94151042276259       1.37178665413307
H         3.27720968602603       1.95065832690384       0.15550161027075
H         2.34897874839379      -1.33621409061550      -0.65195569235366
H         3.63073616128035      -0.11896087798560      -0.58067054853972
H         1.82946760655518       2.91191799070700      -2.62500309863868
H         0.16696153164555       2.56800755266671      -2.11791696883367
H         0.59846686923145       3.35722506567672       0.02159787237154
H         2.18957803905204       3.89205547957447      -0.54701329108141
H         0.48259171145636       0.30991695420812       1.37831459982950
H        -0.30739130435429       1.11922094734762       0.01304095034139
H         3.20093458319977       0.11040174004920       1.91797519059944
H         2.13306288176215      -1.29863709015176       1.81088282416248
H        -1.22640933036229      -1.09744467915497       0.24230332840662
H         0.36168071307589      -1.86571295296819       0.23148992485809
H        -0.26825532628573      -1.10587711127793      -1.23989703304660
H         4.02690257956456      -2.63116932126631       0.84724427447103
H         5.07367277583424      -1.20729268115712       0.96383818040023
H         3.72595280540101      -2.60256875602294       3.33695228453126
H         4.77903431098308      -1.18065330838872       3.44098450238247
H         5.43428979652609      -2.72903740637844       2.88634266703455
P         5.85918132314178       2.38334522532815      -1.52097742023470
F         4.32717593091623       3.12045032626661      -1.50579290825594
F         6.44189385649327       3.45072127498890      -2.65100647281344
F         5.24211922774308       1.27779790647703      -0.34960561591261
C         6.27084258598792       3.71131482730938      -0.13025267160336
C         5.10623011651148       1.26544446958961      -3.01391145286100
C         7.54306039267356       1.30371095517987      -1.49882184027209
C         5.60034543108306       3.61580361032642       1.26750774025551
C         5.90892899734552       0.89927647126949      -4.30099226489621
C         8.57414566100471       1.22564885149932      -0.33505765851208
F         5.91408897822018       4.91773940302657      -0.60415570876136
F         7.59950922853206       3.74960271763686       0.07408789691288
F         4.01794420004092       1.90942210969912      -3.49877880034151
F         4.63281830882402       0.08645524493633      -2.53331147207485
F         8.24156601676736       1.58024812351499      -2.61286598635048
F         7.08044074940588       0.03699316846822      -1.62508335987845
F         6.03214344248266       4.59423428337443       2.05906252822894
F         5.83151707462530       2.46112399447751       1.88419721567787
F         4.26849293036351       3.74927489244272       1.15779049707775
F         5.03797524233408       0.47565901505817      -5.22763270672163
F         6.55079970804557       1.94538961396803      -4.80227210564121
F         6.77822806452023      -0.08252850525489      -4.10600025721466
F         9.48984753291942       2.18013954108416      -0.41888245500599
F         9.20711221572644       0.05196587124282      -0.36982023031580
F         7.96552392336065       1.31378284969311       0.84926414344014
