61
C17H36F6NP optimized with ForceField in AMS.
N        -0.52477780727749       1.78240913588905      -0.19763210101443
C        -1.38034112940605       2.32225251605918      -1.30466600581901
C        -0.20598808152589       2.90042072164428       0.75041921071290
C        -1.20846616459096       0.66938160942979       0.54988364397355
C         0.75379312150192       1.31462984934465      -0.83604056005752
C        -2.66570853342590       3.01316763355151      -0.82342625010299
C        -1.44620994973712       3.64548628970135       1.28405189467431
C        -2.33538200518552       4.14336259221975       0.14719554341510
C        -1.51553119490475      -0.60487764065719      -0.27459209618537
C         1.77183998029439       0.62690450633726       0.10743721788095
C        -2.20275881776114      -1.65713046350294       0.60444851049973
C         3.04716986688957       0.25800052872132      -0.66258608786293
C        -2.48917975393294      -2.94042601180468      -0.18449873389898
C         4.05515922611666      -0.46653092564061       0.23876597259494
C        -3.19484313110470      -3.97959905289790       0.69479869627735
C         5.33099467695321      -0.82050198895040      -0.53586387988031
C        -3.46546199465772      -5.26708756972172      -0.07915538932516
C         6.33689880048904      -1.54727417776496       0.35319296491854
H        -0.81050037853956       3.07761390071873      -1.89424737823771
H        -1.65159596573625       1.53293917986456      -2.03577888718403
H         0.34846813334147       2.52613293532505       1.63772479417243
H         0.45005021919126       3.65460841398210       0.25830194348654
H        -0.60220492493844       0.37422409761950       1.43511932007713
H        -2.16781763444507       1.01290461485804       0.98362634127307
H         0.53611347567190       0.61923772192929      -1.67785989093496
H         1.27450127034924       2.17617971103899      -1.31075842805507
H        -3.19248605795882       3.44038699984874      -1.70386671381378
H        -3.36267607116334       2.28760477307566      -0.35626025308353
H        -2.03100120481740       3.00027391779026       1.97169720116715
H        -1.10719074124216       4.51981577821462       1.88071926324576
H        -3.27817248124146       4.55528181811303       0.56827217898219
H        -1.81681583792850       4.96296248862602      -0.39813129944236
H        -2.19394480158151      -0.36891814174760      -1.11871204628240
H        -0.58185256693482      -1.04813111147487      -0.67622606152879
H         1.34392159302370      -0.30476994095428       0.53102532886486
H         2.05339357523039       1.30331073814010       0.93922579211783
H        -3.15973298722691      -1.24160784941022       0.99065794442903
H        -1.54597404618872      -1.89810783170674       1.46942925338505
H         3.51312062085547       1.18523759577901      -1.06368829426736
H         2.78156483464437      -0.40227330684466      -1.51785999248704
H        -3.13424626288168      -2.69999250286458      -1.05864282956622
H        -1.53003785165415      -3.36355701902461      -0.55744979822090
H         4.31683185862365       0.18827837433168       1.09940764703227
H         3.59255553470410      -1.39950017601585       0.63095980395301
H        -2.56070110606685      -4.21670330465253       1.57693165582514
H        -4.16196075073792      -3.56739278836209       1.05737406410291
H         5.07557056136082      -1.47415634758350      -1.39849228127316
H         5.80120310004878       0.10870283676111      -0.92590489848524
H        -3.97657886921670      -5.99817096582247       0.58206171339582
H        -2.51132809354666      -5.71393988099990      -0.43043674254186
H        -4.11916361930206      -5.06218633709847      -0.95330088523800
H         6.62897466697153      -0.90553912661535       1.21100067960503
H         5.90165539790705      -2.49507354642230       0.73423884577812
H         7.24723686477433      -1.78735598718691      -0.23530017729825
P         2.21096859673600       5.85411994444269      -2.11113601080123
F         3.73431296606393       5.60489353956769      -2.86548499131696
F         2.83690142440995       5.17671684362783      -0.66124643770618
F         2.71446257718350       7.43509513501104      -1.66492121924559
F         0.70605475084184       6.07334504899088      -1.31174614970975
F         1.55700432914247       6.51467041802587      -3.55579134243613
F         1.71563562913863       4.30913048304670      -2.67178553203751
