48
C12H22F6N2O4S2 optimized with ForceField in AMS.
N        -0.51130054168521       0.00770583759611      -0.00274817921272
C        -1.43239985785826      -0.55680513509144      -1.03696816377869
C        -1.41248804157230       0.59678951896069       1.03524781742652
C        -2.83667202351209      -0.06728911607055      -0.73929551479305
C        -2.82906012778335       0.13871680360221       0.74876873676160
C         0.33328928570392       1.07906057670843      -0.62521576233561
C         0.30727895523733      -1.08566515228585       0.61709249880225
C         1.33866434649321       1.74862225703882       0.34007816605444
C         1.30058213374354      -1.77623554090400      -0.34714968027884
C         2.05015777754696       2.91624860765154      -0.33919236847441
C         1.97376996029371      -2.96760057896762       0.33027024530357
H        -1.15015469314139      -0.27958132446418      -2.07874315852656
H        -1.46750144964584      -1.66999087419649      -1.00796219344522
H        -1.12928834568325       0.31804981837735       2.07632878344412
H        -1.42340663461388       1.71034086716485       1.00092520639377
H        -3.01761432291899       0.90270056093181      -1.25419805516255
H        -3.60843455472580      -0.80571787692378      -1.04852172679678
H        -3.02784658341444      -0.82658196090309       1.26575827195303
H        -3.58115315991292       0.89491020291545       1.06367583231353
H         0.89988087679013       0.67486572858786      -1.49310579559270
H        -0.32591258478675       1.87249844285822      -1.04902708063567
H         0.88120338458821      -0.69901607206500       1.48801288027327
H        -0.37206291374448      -1.86422995512143       1.03700450382701
H         0.82778407884434       2.13172042494700       1.24752576902272
H         2.10995180133394       1.01921932536495       0.65695122296446
H         2.09846696582705      -1.06939393093686      -0.65506153891297
H         0.78274164802348      -2.13913886402547      -1.25914453187788
H         2.58764770705992       2.56588473151029      -1.24569193245384
H         1.31760628069838       3.69861860197684      -0.63098497503711
H         2.78790391152770       3.36253898726101       0.36088564147172
H         2.54162226899961      -2.63048789457699       1.22371508531629
H         1.21495456376459      -3.71751536367455       0.64056736641882
H         2.67988520780276      -3.45074114326050      -0.37774838601653
N         7.21776997344451      -0.83101683517485      -1.00609312163944
S         6.25582311278955      -0.76682560647671       0.32017450771694
S         8.78523595741492      -0.34882598181770      -0.99621751513896
C         5.39887739090164       0.79254342612340       0.34035188529978
C         9.82823780927705      -1.77968613492336      -0.81421165723665
O         5.24278653508268      -1.87434213581936       0.25130457844663
O         7.07082137961848      -0.90949467946465       1.57559681324013
O         9.04376227135052       0.60975256172216       0.13303332416349
O         9.10578094344423       0.31887207184585      -2.30370548131236
F         4.58691567083768       0.86239566332558       1.45580841167437
F         4.62698383098402       0.90350198162105      -0.79981496307138
F         6.31426033289296       1.82638060029619       0.37579385260978
F        11.15393318200200      -1.39069517307446      -0.78750110478195
F         9.62394085336240      -2.63668716972056      -1.87880734021751
F         9.51722326081750      -2.43066651554817       0.36386767473112
