50
C12H28F2N2O4S2 optimized with DFTB in AMS.
N         0.04810336095984      -0.09071353477344      -0.18723351709443
C        -0.75801326144643       0.56502003717237       0.89755735000624
C        -0.83974114393617      -0.81157091190583      -1.17061581979961
C         0.97499886376823      -1.10736031635845       0.43385619340344
C         0.81730109715313       0.97650845264418      -0.92281017954686
C        -1.72698982572728      -0.35104752979160       1.64477534374405
C        -1.89598789151892       0.04371062288276      -1.86510912328324
C         2.03945303106855      -1.68153033403647      -0.50145048094904
C         1.86659920588808       1.71731064634093      -0.09770076481786
C        -2.41303885778575       0.44398166480413       2.75600824088137
C        -2.67895949471481      -0.84203357415705      -2.83539616186502
C         2.73462883340438      -2.85928584620842       0.17784804122339
C         2.55436144753548       2.74965756939459      -0.99204710656776
H        -1.31045758128418       1.38728025304811       0.43636827092558
H        -0.04693503824477       0.98933238003698       1.61003759076649
H        -1.31600320048668      -1.63350510399596      -0.63118545190945
H        -0.18079769590073      -1.23806746146819      -1.92551128665819
H         0.34254721641266      -1.91743126248277       0.80570262633343
H         1.45186227697728      -0.62687466956341       1.29238171104448
H         0.08369926060747       1.69348053659482      -1.29602387450432
H         1.28930205283515       0.49474464492351      -1.77930876985038
H        -2.48842280013692      -0.74288542232309       0.96683906684552
H        -1.19412814243598      -1.19680449606920       2.08596471919567
H        -2.58315154900734       0.48998805399162      -1.14033265195243
H        -1.42159804653434       0.84678088254132      -2.43282246816184
H         1.59697343464602      -2.02235674066318      -1.43789980793557
H         2.78413850694171      -0.92181878052591      -0.74252032414949
H         1.40536173835206       2.22602768174861       0.75413098141421
H         2.61919875347529       1.02527042881279       0.28607158949003
H        -3.10943083891681      -0.20089625186871       3.29041840898704
H        -1.67813664371942       0.82668522747037       3.46477511931306
H        -2.96716176773027       1.28514610551022       2.33865242970219
H        -3.43028033678994      -0.24379257957209      -3.34948778814960
H        -2.00863217681279      -1.27330021380499      -3.57823175597980
H        -3.17987789622127      -1.65032033605653      -2.30124695797128
H         3.49925592788354      -3.25114010318915      -0.49140169494709
H         3.21012162891180      -2.54600907576912       1.10839740544421
H         2.02220245816386      -3.65537176875977       0.39832905093395
H         3.31094408455383       3.28391383363952      -0.41846603958777
H         3.03676443190850       2.25592650537250      -1.83422257983755
H         1.82978132093340       3.46967674864593      -1.37342940111921
N         2.39459551849147      -0.89107485609833      -5.05229707728467
S         0.91013706950219      -1.15183389178637      -4.59377473137093
S         3.48564827689676      -0.75427982413076      -3.90256384987638
F         0.45276703223640       0.24600703055702      -3.81986930414376
F         3.52401028225915      -2.21523044126907      -3.18839472500153
O         0.06615135146089      -1.19047264771389      -5.73748631220888
O         0.71013032625115      -2.13475789430299      -3.56180984299157
O         3.13955258646911       0.12411016538427      -2.81531399705390
O         4.76174014690339      -0.60907283577176      -4.50957192518493
