42
C10H22F2N2O4S2 optimized with ForceField in AMS.
N        -0.11250658416485       0.02303160691760      -0.06426874659989
C        -1.03509867650348       0.52935678056995      -1.13186966719242
C        -0.62422302775323      -1.29722752883449       0.42996806422144
C         1.22260501445208      -0.19598032610938      -0.72072406377321
C        -2.50728294075945       0.62771120491846      -0.69806683343698
C        -2.09576361857448      -1.26833806301397       0.89015695331659
C        -0.01056904648379       0.98716640967294       1.08656916713772
C        -3.00817331420582      -0.72489656401931      -0.20449406928189
C         2.36745384429759      -0.65144813319241       0.21805427699256
C         0.60185980987285       2.36116303853582       0.75550158985007
C         3.65812968830191      -0.86962913970432      -0.56756850870113
H        -1.00398706780711      -0.14741788658557      -2.01791481285940
H        -0.71161235570092       1.51898916785761      -1.50870146395991
H        -0.02450438579162      -1.65965488181898       1.29216530339908
H        -0.53988812052586      -2.07093075520632      -0.36788291767929
H         1.55114854688240       0.72692138705672      -1.24756615471517
H         1.12770915406604      -0.96255496762497      -1.52477945792729
H        -3.12006350523141       0.93867310750977      -1.57173529867736
H        -2.64667558264984       1.40396614837309       0.08208255413681
H        -2.20978054268035      -0.66745121702088       1.81631167438849
H        -2.41529794909842      -2.30350324311039       1.13881642348175
H        -1.00292433650161       1.18626453997103       1.53464987818875
H         0.57869726951699       0.54103979020665       1.91672591332722
H        -4.04108546570834      -0.61726038799848       0.19123367170840
H        -3.03742207160537      -1.44314664307241      -1.05360878169213
H         2.57539580228277       0.11362382324663       0.99292242017994
H         2.11322922437345      -1.60702307727753       0.71895741316068
H         0.64308104025958       2.96573440002171       1.68605154737601
H         1.64051057519270       2.27595619648209       0.38063727260229
H        -0.01916721194157       2.92472889623978       0.03168980206055
H         4.46701692527188      -1.18375509844026       0.12562327638579
H         3.51698098684123      -1.66522347672887      -1.32992030635701
H         3.96822890964914       0.07110549253024      -1.07064903728904
N        -0.06107929887685       3.22730847562805      -3.43700554105644
S        -0.67707695438505       4.66132584544235      -2.94479046547556
S         1.54787978452132       3.01394733545626      -3.64177901558377
F        -0.78826039380348       5.69093259927812      -4.26034685424069
F         2.33355832856008       3.22277241454545      -2.17816390620375
O        -2.04691415455343       4.44645467732030      -2.36784210662981
O         0.21700707500323       5.28446910985972      -1.90996959587435
O         2.07065545080284       4.02630150299693      -4.62118361896097
O         1.80925990325828       1.62866437182124      -4.15961402674668
