27
C7H11F3N2O3S optimized with DFTB in AMS.
N         0.67073277718261       0.52141232903380      -0.35089543375775
N         2.42631110644857       0.14254652825500       0.83179390552263
C        -0.30931782994855       0.43783760592772      -1.42852404885621
C         1.67096635405593      -0.33087715940908      -0.15850161329167
C         0.80663868481600       1.57929506329436       0.50817583394333
C         1.91748658376282       1.34180447008737       1.25194412067510
C        -1.68762587096209       0.10469492799418      -0.87313172773215
C         3.72550233922626      -0.40280388942972       1.18491910426447
H        -0.30563833830033       1.40227636332148      -1.94267589742663
H         0.03321963476585      -0.33016691886346      -2.12505974121921
H         1.84032681301690      -1.24424815050148      -0.70015940928579
H         0.12504738544228       2.41121032164192       0.50323776873964
H         2.39040588689749       1.92570120492411       2.02148881368851
H        -1.66746455901902      -0.85048204598859      -0.34832678524350
H        -2.39855204719999       0.04045932518867      -1.69549256375577
H        -2.01933054559455       0.87863674599447      -0.18141291622016
H         3.61963175787162      -1.45086027528393       1.46417247419838
H         4.37084815838274      -0.31670727594217       0.30793652973563
H         4.13738267770662       0.16676604160932       2.01488292426052
S         3.31786799575007       1.30496185573219      -2.50350033930161
O         3.51008585926233       0.03955014450689      -1.78925304232558
O         1.98830152049545       1.86745644238315      -2.32794430179316
O         3.84492368426226       1.33259994693251      -3.83938744885287
C         4.39050451886994       2.45972533222909      -1.52025736516185
F         5.63660337030635       2.00886986663693      -1.42262198464086
F         3.90255196708182       2.55062563968736      -0.26767649782048
F         4.42237671052060       3.68290140923791      -2.02747286064296
