48
C14H31NO2 optimized with DFTB in AMS.
N        -0.43935501497909      -0.10413546349228       0.17641763603806
C        -1.49122701904008       0.64846917873443       0.95030217610602
C        -0.98032384523659      -0.67242163806816      -1.10237378911746
C         0.04394659231765      -1.24728770151949       1.03541241191716
C         0.67695487532051       0.85451753185362      -0.14145536598128
C        -2.79194569746091      -0.11017506744758       1.20327422859941
C        -1.60229870809370       0.34094819212343      -2.06287698323061
C         1.27223972670785      -1.99628707969575       0.52760020389162
C         1.39084241473429       1.44442746359755       1.07484409448569
C        -3.56216456049064       0.60861793041910       2.31228933999998
C        -2.19387296890306      -0.39839108872668      -3.26330044804609
C         1.70734315574356      -2.97522813294271       1.62011460839406
C         2.58813175115150       2.26687419152399       0.60255619611598
H        -1.69145886930231       1.58175556548780       0.41879809783394
H        -1.03796291467846       0.87418106583561       1.92203929039174
H        -1.72618660837498      -1.42193859196810      -0.82672839390460
H        -0.15186166380236      -1.18224849451954      -1.60050611080168
H        -0.78924295679751      -1.94520214992906       1.13354983155167
H         0.26541245818555      -0.83053072962011       2.02399308886840
H         0.23922042661999       1.66537155230744      -0.72961000908700
H         1.38802859284204       0.32213943517719      -0.77820699909681
H        -3.40077453794600      -0.16504431188801       0.29506359964890
H        -2.58353866205476      -1.12914806130574       1.53679059459852
H        -2.39367470287394       0.90752546095876      -1.56727019952832
H        -0.84793166214489       1.04800671000796      -2.41700747684452
H         1.05397588843590      -2.53927549228028      -0.39821964729636
H         2.09791721971228      -1.30818590698258       0.33287652681836
H         0.70971249400373       2.08939905409045       1.63395888412796
H         1.73569700296763       0.66002352668864       1.75306743553993
H        -4.50564031763266       0.09608929250402       2.49832553904722
H        -2.96925796720813       0.60390084232914       3.22761686150571
H        -3.77197832738804       1.64103657708646       2.02970483051939
H        -2.63032094595854       0.31896547683806      -3.95735405757765
H        -1.42046924106903      -0.96247363606276      -3.78563130024699
H        -2.97303913411108      -1.08992934547842      -2.94132494478237
H         2.60658420087230      -3.50495348798807       1.30684463869321
H         1.91731401505492      -2.42549720343170       2.53869889719303
H         0.92048571704912      -3.70382446247557       1.81864318673392
H         3.08969101579367       2.70186848326124       1.46600647260071
H         3.30102382989480       1.63714589069305       0.06821830498619
H         2.27084322016458       3.07435610217000      -0.05984288665854
C         0.57657498786470       0.12178127879117       5.76047851391551
C         0.39878638991424      -0.05302940572693       4.23545806237862
O         1.41209589136932      -0.39893372662683       3.58874132850723
O        -0.73814317649140       0.17226010263671       3.76603225542195
H         1.21685743271210      -0.66767418416370       6.15004155589027
H         1.05781688739953       1.08282495127517       5.94112185448404
H        -0.39042082169364       0.10518466584907       6.25956457089586
