51
C13H24F6N2O4S2 optimized with DFTB in AMS.
N         2.08034521768660       0.59141973049524       0.17877740883805
C         2.23087002793736      -0.18089975450135       1.45281038873533
C         3.20977347026613       0.09405192233063      -0.66856906782172
C         0.76342940862527       0.32802514967276      -0.49704330701470
C         3.73512726574422      -0.26401565337783       1.68613234898051
C         4.37655019638972      -0.11183386141940       0.29683919131734
C         2.25575338617638       2.05010235547086       0.42345699207487
C        -0.44229726402494       0.57108585653255       0.40553983588508
C        -1.73872555010454       0.56111170519906      -0.41102092232620
C        -2.92907399176164       0.88897797140412       0.49694771876798
C        -4.23658545076790       0.96552109169427      -0.29515653001694
C        -5.40197708764643       1.35110695306046       0.61434227048412
H         1.79816356482472      -1.17034673151511       1.29121294507787
H         1.70019354519730       0.32515633358122       2.25657019122623
H         3.41490977389833       0.81521669385429      -1.46023769528582
H         2.90168940641765      -0.85413644008038      -1.11490006365197
H         0.77792652933052      -0.71220679680920      -0.83434399729073
H         0.72974824519986       0.97857755387033      -1.37558439363547
H         3.99299556122267      -1.21900199495391       2.14605421935683
H         4.06476292923954       0.53418925094427       2.35386592707068
H         5.05672207009899       0.74164837933489       0.27367119491266
H         4.94097126806489      -1.00204464713175       0.01427266281580
H         1.51723261817246       2.38721251062806       1.14423503810782
H         3.24964147500102       2.22796408911211       0.82524847207988
H         2.13155665326333       2.58279733682306      -0.51720360586828
H        -0.49003647499531      -0.19589715352007       1.18200739091159
H        -0.35532319686077       1.53827495621404       0.90032126077264
H        -1.87858395371915      -0.41974412684546      -0.87885457603116
H        -1.66972152230119       1.30811275000427      -1.20967527424802
H        -2.74845049271749       1.84769922081627       0.99225647793512
H        -3.01227387373700       0.12414726223848       1.27575941453584
H        -4.13585522522677       1.71030476489467      -1.09227768576670
H        -4.44037661628553      -0.00297716707351      -0.76580003110551
H        -5.21565494256299       2.32023188061638       1.07814465682996
H        -6.32454435722678       1.41190390710013       0.03645992639192
H        -5.53271942478688       0.60871803443977       1.40276651505065
N        -1.22513931729318       2.44054944313096       2.91657039950485
S         0.03396559952450       1.82846562948998       3.68354653746178
S        -1.37565443335167       4.04353483655162       2.87942856025691
C        -0.08791133250342       2.14767484284055       5.53382773448200
C        -0.25052281352206       4.65676581460796       1.50413976134167
O        -0.08333550441690       0.38806579782811       3.55637889503274
O         1.32669560314801       2.38244079832451       3.29362493178684
O        -0.92290942197081       4.72566112464257       4.06170708103652
O        -2.68666032940870       4.31633402617612       2.36124354795415
F         0.38322119985057       1.07983334533800       6.16141563368062
F        -1.34543701457740       2.33118645454032       5.88465060358027
F         0.63171074970017       3.19406528349468       5.87701888010020
F        -0.67448686902523       5.82417486107880       1.05810674693753
F        -0.27698298114288       3.78668040707808       0.47999957593136
F         1.01119253425738       4.77777473177352       1.88643878521705
