48
C12H26F2N2O4S2 optimized with ForceField in AMS.
N         0.98297760489465      -0.30750620655155      -0.00538186784592
C         2.05444948846631       0.07307922542582      -0.97733206105073
C         1.65331491933868      -1.22376559977413       0.96755601814850
C         0.48697093542095       0.90678219023020       0.72157761382953
C        -0.11090845574994      -1.03215139622311      -0.73125170041394
C         3.26848716005065      -0.79738883183408      -0.71410849905793
C         3.15006132949415      -1.14068981654708       0.74333232257202
C        -0.25946491833555       1.93358511841367      -0.16412763105279
C        -1.29659792992541      -1.47356853101828       0.16020467576094
C        -0.60842488821449       3.18993504396574       0.64356366860123
C        -2.29461617470255      -2.31397955702481      -0.64638265946058
C        -1.32982964988653       4.22456281938849      -0.21480940195763
C        -3.47773045691381      -2.75115162059045       0.21285487029824
H         2.38360210171178       1.13010275300309      -0.85137524108671
H         1.74287442181435      -0.03394292758015      -2.04179587045763
H         1.36377786171437      -2.28850361253576       0.81121694513681
H         1.41976552550835      -0.98679133334525       2.03094400403024
H        -0.18636025128760       0.61382718891207       1.55701676675808
H         1.34800413710894       1.42280477570172       1.20567225917682
H        -0.51005602341734      -0.40603264569639      -1.55935911385553
H         0.31031263298020      -1.93813945855467      -1.22669867115696
H         3.20946674573651      -1.72483881962051      -1.32643768853323
H         4.21890998801747      -0.26306480197004      -0.93246171085363
H         3.58135640587757      -0.32180856741925       1.36137798704618
H         3.65957573772940      -2.10019270962893       0.98074197368941
H         0.36495260019012       2.22516148029061      -1.03464705853982
H        -1.20607352310393       1.49573648651129      -0.54286408570443
H        -0.93512188728076      -2.07294096812795       1.02215306018073
H        -1.83177996102286      -0.58402001922937       0.55215927538812
H         0.31873735275438       3.64872101881796       1.04436278110418
H        -1.26176918526253       2.91476252405963       1.50000298451527
H        -2.67664087758178      -1.71805011903735      -1.50388743103186
H        -1.78853767412148      -3.22029749286942      -1.04460077398077
H        -2.28374306458680       3.80757693295140      -0.60184533124773
H        -0.68863774985615       4.53357069371472      -1.06772827336217
H        -1.55722116547534       5.12121042552641       0.39997517081081
H        -4.01493790143608      -1.86432243687619       0.61161801867626
H        -3.12855222223457      -3.38139588940981       1.05831289321372
H        -4.18429579356577      -3.34533746119541      -0.40460036625561
N         4.59757432250614       3.34701631875830       2.12759576288968
S         3.22776603003087       4.18395299646272       2.44378553298757
S         5.99476534150588       4.11836026070719       1.76607900317727
F         2.63985552628580       4.84021572442789       1.02005659043079
F         6.63502594026454       4.78992827326032       3.15981219828741
O         2.19952593568938       3.26399009797895       3.03707984452787
O         3.52130410599601       5.30074515274945       3.40521141212630
O         5.73222633824314       5.21691621808292       0.77484888046758
O         6.97725871333070       3.13933447511938       1.18989054387403
