23
C7H8F3NO3S optimized with ForceField in AMS.
N        -0.70832565953412      -0.00494963736370       0.04042507148756
C        -0.03207861552499       1.18346375624338       0.05948148758546
C        -0.02821028806585      -1.19064346490992      -0.00161386920395
C        -2.17257852961492      -0.00751072988902       0.01305114187550
C         1.36487473608802       1.20477204662570       0.03700591262077
C         1.36906397256674      -1.20598469730061      -0.01465851102754
C         2.06709894659759       0.00084350274058       0.00140649737504
H        -0.57081004071276       2.12331763237215       0.08221294868427
H        -0.56404989103269      -2.13229115486634      -0.02723022716398
H        -2.57517712134478      -0.90292938965662       0.53437449879778
H        -2.58087403239982       0.89081075146485       0.52499511622379
H        -2.52296958018279      -0.01337969617400      -1.04063752464751
H         1.89676567185462       2.14754314925986       0.04147408252494
H         1.90481970057608      -2.14609649468648      -0.04321830181083
H         3.14937345625113       0.00293023997146      -0.01743999113896
S        -0.06980476631401       5.41400687935553      -1.31542603289635
O        -1.02887550038946       5.13244623164669      -0.14942231186172
O         1.31424334147896       5.34932111047422      -0.65299769100695
O        -0.26355053611766       6.91621399676139      -1.57022291736924
C        -0.28357437831113       4.35283919731983      -2.77136954806179
F        -1.56949134020799       4.49071510193688      -3.25707153430995
F        -0.06402943791564       3.03557294965791      -2.42152015623904
F         0.62009899235547       4.72343016791628      -3.74820545663729
