34
C8H18F6NP optimized with ForceField in AMS.
N         0.42218458114069       0.23935996511745       0.04507271293662
C        -0.53303652725923       1.28161124060169      -0.44812309322547
C        -0.08864396742656      -1.12740571678948      -0.28091157256571
C        -1.99000392950448       1.07379411635509       0.00655478255037
C        -1.52867385944982      -1.37762023689030       0.20022071941064
C         1.71893867954495       0.47888489554641      -0.66997542258300
C        -2.47780851900479      -0.32331981146579      -0.35555359600866
C         0.62928662462960       0.39327835567434       1.51092479461421
C         2.87880911841418      -0.45710357293369      -0.28468468718842
H        -0.54180674714484       1.29810355033130      -1.56318829056188
H        -0.20653888698701       2.29509782935569      -0.11989366573320
H         0.54934748740401      -1.91085937698704       0.18285231161743
H        -0.06304812742425      -1.29487445880231      -1.38225490113551
H        -2.63643398357994       1.81930448665124      -0.50466349338741
H        -2.10038609056149       1.25013171481829       1.09639564911804
H        -1.57456690333192      -1.38777233184072       1.31042402537688
H        -1.86055628239395      -2.37857831832894      -0.15192790984907
H         1.57469913502995       0.38111955160799      -1.77052998399809
H         2.06637318114033       1.52296263711252      -0.49431509865403
H        -3.49506659888872      -0.48193154730829       0.06303810498846
H        -2.53852994798114      -0.42236008666197      -1.46155540221295
H        -0.32356280616257       0.38886842050501       2.07413138033775
H         1.23193888103303      -0.44186218283205       1.92705225862010
H         1.14593630740777       1.35096218369310       1.74336498243037
H         3.76333251595459      -0.19410403124667      -0.90106891630546
H         3.17209595160157      -0.33074974564780       0.77682194650567
H         2.63975181843949      -1.51873844553328      -0.49418460154874
P         7.41475134967539      -0.28209707292475      -0.21108221874171
F         6.48029786076662       1.14945274568531      -0.38207377976019
F         8.07640939982127       0.01080515136174      -1.76925022115513
F         8.73637129002354       0.57166299431945       0.47871718051848
F         8.32404324545681      -1.72215857628663       0.01424180687788
F         6.67778859986441      -0.46220070599743       1.33034328393277
F         6.20309060925250      -1.25419703965947      -0.94368458182105
