47
C13H28BF4N optimized with ADF in AMS.
N        -0.77787456944252       0.65205578297308      -0.15891048675116
C        -1.68125693687520       0.25469135625270      -1.30745487540607
C        -1.42905478053483       1.81470171414576       0.59012098130533
C         0.53483538480900       1.12381772226903      -0.75841265098343
C        -0.54823986314472      -0.49863976605726       0.80704990598186
C        -3.09034722389299      -0.09898371231990      -0.86155531105606
C        -2.84307914473036       1.50664399850211       1.04651049958970
C        -3.73458154295311       1.06600638669756      -0.10960190134346
C         1.62610080184187       1.45630410917110       0.24192877567814
C         0.09873554119124      -1.73172050143354       0.20663714624235
C         2.83554942284632       2.06987682848910      -0.46505753888314
C         0.33030028790424      -2.76677562801635       1.31287391021108
C         3.95035189414241       2.40609773847002       0.52284706785137
C         0.98038285012428      -4.04345001105040       0.78952374216863
H        -1.19024017763547      -0.57430689016181      -1.83625369301758
H        -1.70301883025930       1.12711600014364      -1.98154850472976
H        -1.41871453593782       2.65455873589612      -0.12530459536708
H        -0.79377376257284       2.04731130342903       1.45377635852818
H         0.27856517570380       2.00927670975051      -1.36292098882455
H         0.86324173408508       0.33255525688905      -1.45071326190811
H        -1.52224415377224      -0.74477294797982       1.24231092161756
H         0.04128289127964      -0.07902783119066       1.63425331364248
H        -3.07679337588553      -1.00389419542513      -0.23179643272399
H        -3.66587571685868      -0.35651825627845      -1.76677232350390
H        -3.21693972838840       2.42669121562371       1.52355611642599
H        -2.81522975068436       0.76224857738676       1.85801218356602
H        -3.88298203485268       1.90827024589489      -0.81163993002824
H        -4.73111129651907       0.77675982789578       0.25998318929174
H         1.94462665394214       0.54992133096680       0.78086496776541
H         1.25756216989123       2.14870634783104       1.01377970147561
H         1.06980894950982      -1.49091290614411      -0.26056977017818
H        -0.53737647133416      -2.18387931845563      -0.57537257257974
H         2.52530576206774       2.98617282024687      -0.99966313504360
H         3.21552627142544       1.37097296222427      -1.23318752337660
H        -0.63500342414647      -3.00456353778139       1.79298902425707
H         0.95714700699725      -2.31529480324521       2.10060766930048
H         4.29513108521651       1.50202662930740       1.04828706415754
H         3.59496071445451       3.11583857784284       1.28598084949942
H         4.81440651433575       2.85477503150273       0.01080148073271
H         1.96201614610147      -3.83252632147428       0.33519699650528
H         0.35206245408740      -4.52765578516202       0.02460836746451
H         1.13617816525741      -4.76665851464269       1.60367507969200
B        -0.68219743720904       1.26160878994605       3.97414011223205
F        -0.31705930103107       1.25318011611135       5.31895296821663
F        -1.45267333707752       2.41252805040500       3.63773588514421
F        -1.43123053041695       0.08561225986442       3.63284111881226
F         0.50737530424081       1.27439467198991       3.13381397294904
