32
C8H16F3NO3S optimized with DFTB in AMS.
N         1.07897968560482       0.17451525464462       0.36178028549655
C         0.53797012435003       1.57363142534115       0.25736747568974
C         0.16834839550422      -0.76454575535165      -0.36531749706250
C        -0.87958006647361       1.69250540485316       0.79168051498940
C        -1.26166973414637      -0.70142555296406       0.16359530063157
C        -1.81534098553930       0.72191237585003       0.07597354609294
C         1.25795395024138      -0.25290906381355       1.77739454408044
C         2.41830629770814       0.15683012954311      -0.28632469697780
H         0.57034600415142       1.83969038299244      -0.80319522609162
H         1.20842254004716       2.23203825164913       0.81231990349614
H         0.57973357159283      -1.77172901838292      -0.26092101162207
H         0.19126841015341      -0.48053608768415      -1.42146699466589
H        -1.20143455148805       2.72265259775674       0.62174286192400
H        -0.89167863280123       1.52125931473908       1.87011222031351
H        -1.29904208024676      -1.05800286761510       1.19605800213146
H        -1.86772957155814      -1.37804896851841      -0.44471414665580
H        -2.80698669384421       0.75456520058610       0.53265562784554
H        -1.91498974789470       1.00888680476200      -0.97629032706393
H         0.32621080045030      -0.13973945321646       2.32168933793256
H         1.58063917207260      -1.29270433297249       1.78983087941074
H         2.00893149096879       0.38263826263204       2.23742329959137
H         2.31345122466203       0.42211354768927      -1.33661677608579
H         3.05102155390676       0.88398871115731       0.21896102894550
H         2.84508656188752      -0.84043589306713      -0.19523261558093
S         1.57652787451478       3.36019820996109       3.18820983146069
O         1.46350905705463       4.23155862598391       4.32269595860022
O         1.39827145931102       3.97566809700251       1.88361593505899
O         0.90013713035110       2.07009771930883       3.31280724776086
C         3.36479387788318       2.84133159460251       3.13875414984100
F         3.75125829761050       2.22977516190750       4.25028763278630
F         4.19190581266963       3.84535251467691       2.89657744440778
F         3.51832800059612       1.94539593124649       2.12626705321901
