32
C10H18N2O2 optimized with DFTB in AMS.
N         0.47051635552080      -0.72053681205276       0.20691851410957
N         2.38657088074542      -0.47825744941456       1.18662324567743
C        -0.79950456815318      -0.43336853967430      -0.44045507702852
C        -0.63994432683774      -0.23306214159629      -1.96177940232191
C         1.34007756003106       0.20536946098776       0.67372557591460
C         1.10100643288405      -1.95610117329333       0.17877203861542
C         3.64430763433091       0.10709311056269       1.64510921088931
C         2.29362302030730      -1.80158267355419       0.78448689028635
C        -0.75606047894828       1.23571773314362      -2.36343761365941
C         3.48390955580757       1.57109132824811       2.02011226200357
H        -1.22205601449572       0.46023464114898       0.02945696394828
H        -1.46548809061741      -1.27724076232408      -0.23492051057966
H         0.33301630122762      -0.62089795582717      -2.27306894901719
H        -1.41322358887849      -0.81338858624083      -2.47456747506636
H         1.00712531221351       1.15612861645761       1.05698528585405
H         0.62414598835889      -2.82283986895817      -0.24368120903569
H         3.99095160326052      -0.47670513732011       2.50451437007067
H         4.36775377884151       0.00218184282481       0.82703849494669
H         3.08290289553745      -2.50472954089244       0.98089003856160
H         0.01704318081715       1.82219481716181      -1.86865414809741
H        -1.73404956466311       1.63404121298149      -2.08794292220704
H        -0.63028155996591       1.33440753869703      -3.44177414426833
H         3.21537274367958       2.16017868213593       1.14390226002892
H         4.43233622485991       1.93987729676425       2.40996507683957
H         2.71706989641385       1.69917325483632       2.78521862148925
C         3.20095112908842       1.34750604213924      -2.97617062841874
C         2.98793670797031       0.66528744022852      -1.61003918690381
O         2.01873669400261       1.15380081615468      -0.93691305949403
O         3.73516706519930      -0.24867124166980      -1.28764817065461
H         2.34379127056469       1.96156387655132      -3.24205284830269
H         4.09003406002172       1.97334769509463      -2.91029518383951
H         3.36846301777575       0.58365345779920      -3.73298912344033
