45
C11H24F2N2O4S2 optimized with ForceField in AMS.
N        -0.24987255491781       0.30457521529438      -0.16322684025488
C        -0.95203506242857       1.26557155283272       0.75122849248763
C        -1.15319477370071      -0.00564106768960      -1.31947070176482
C         0.12888847371400      -0.93346727908944       0.60453450440801
C         0.95925770362622       0.98912195814424      -0.73827099020719
C        -2.35256481515614       0.80146440955881       1.20091341013393
C        -2.53798697822442      -0.53391822338866      -0.91012909465606
C        -3.23614973504364       0.46558196814876       0.00475661080705
C         0.92616057298550      -1.99889733015680      -0.18720704401480
C         2.08715724453687       1.32509394786398       0.26901189518402
C         1.26258588878066      -3.19415841451936       0.70249243428024
C         3.17642315915518       2.16185502361392      -0.39789267563709
H        -0.36318398224749       1.44052352432117       1.67649978811492
H        -1.07419802257691       2.25638340612678       0.25603159734894
H        -1.32667155090446       0.91463441904751      -1.92539236122370
H        -0.68736161113652      -0.72700195201880      -2.02165854830495
H         0.71854075326633      -0.65644511712952       1.50620636407199
H        -0.77028561392218      -1.43902868248591       1.00752396456220
H         1.40051207364488       0.37712279694204      -1.55654552206785
H         0.65359233569349       1.94205083537639      -1.22974657194247
H        -2.28340794206374      -0.07262770238212       1.88121209991209
H        -2.83374056822332       1.61941645732807       1.77975091259666
H        -3.15620248804164      -0.67325119720989      -1.82324056707530
H        -2.46202038563630      -1.52528044282672      -0.41800580766516
H        -4.19765608433882       0.03680157345837       0.36078476029376
H        -3.46194179014656       1.39596283765107      -0.56210621293593
H         0.33508847331260      -2.38181173567989      -1.04290373983546
H         1.88136483935846      -1.58474435446850      -0.56787751424268
H         1.70214796508943       1.90746608543352       1.12865348846541
H         2.55900226102876       0.39660846385838       0.65167767784508
H         1.83387383906497      -3.94537251444336       0.11713551715878
H         0.33168586610886      -3.67210334895446       1.07648181256210
H         1.88242305678761      -2.87126322457199       1.56590817843336
H         3.99806272802278       2.34853272987209       0.32598205730596
H         2.76501785231854       3.14098952853047      -0.72428150093001
H         3.59057716881590       1.62786745944402      -1.27941806800916
N         7.85175612956526      -1.27552306678779      -0.80478746614450
S         7.20898839752426      -0.00724969424588       0.00605985445728
S         9.20641323809038      -2.02600137148589      -0.27611995707416
F         8.08858826196693       1.37547965826153      -0.33784470357196
F         8.86485858052519      -2.86421547429698       1.13262548452266
O         5.78549055885473       0.19145943607954      -0.42614707576236
O         7.25724927829881      -0.26138579994114       1.48651272014662
O        10.27491397694608      -1.00867136348911       0.00942383658325
O         9.69080658082654      -2.98706734302597      -1.32345544836141
