48
C12H26F2N2O4S2 optimized with ForceField in AMS.
N        -0.71412168226879       0.31607273019760      -0.15973804667248
C        -1.27816463518609      -0.44591641909686      -1.32118840458606
C        -1.84458772232490       0.73234903980830       0.73412367074207
C         0.26927978648694      -0.50708880685804       0.62815892864710
C        -0.07247614196988       1.55112752786804      -0.72950637778068
C        -2.13676877416799      -1.65742645838609      -0.92019830591401
C        -2.74957133349120      -0.43242087913951       1.18684393642191
C        -3.27819844897017      -1.22523990923002      -0.00504335485696
C         1.55072215506084      -0.93540616819440      -0.12789801541139
C         0.65855644084219       2.46152201949851       0.28836874016605
C         2.46337894080401      -1.75723990473979       0.79232538023229
C         1.23077966782466       3.69734799791783      -0.40224533516537
C         3.75047800971866      -2.16061097478369       0.08134105892327
H        -0.48044783036717      -0.78585873116544      -2.01341006884721
H        -1.92938586156728       0.22073078251637      -1.93425869568479
H        -2.49356297204086       1.47893990491281       0.22063690761832
H        -1.46438608182734       1.22073990300939       1.65688379036935
H        -0.20359895949900      -1.43365807502317       1.00669236363517
H         0.57258610506152       0.03879188319618       1.54837091375811
H        -0.84243510871057       2.17559559239883      -1.24024408291715
H         0.64871254555873       1.27845747239975      -1.53238871222434
H        -1.52293724515505      -2.44414863638148      -0.43553010931360
H        -2.56867403864033      -2.11057927654423      -1.83871406561888
H        -3.61357895877173      -0.01725227627593       1.74956709619337
H        -2.21104148026918      -1.10580848207352       1.88563875477304
H        -3.99620400170672      -0.59761084875712      -0.57781948878752
H        -3.82174661393842      -2.12395989571517       0.35888129011085
H         2.11819452178960      -0.04856464516366      -0.47652773216408
H         1.29384485742885      -1.56413757075523      -1.00423979110341
H        -0.03562351582411       2.80924977684244       1.07931615856599
H         1.50401815070463       1.92591496358554       0.76540962373123
H         1.93297670636880      -2.67658478142614       1.12352303682741
H         2.72674576736241      -1.15927364608836       1.69204103172341
H         1.76061372893055       4.32811466405492       0.34260301844116
H         1.95349617436035       3.40001512120921      -1.19196539548439
H         0.41539975683946       4.29859169982518      -0.85827528992601
H         4.31957817686401      -1.25348002118904      -0.20772184332782
H         3.52291246023572      -2.76127935736271      -0.82504573391536
H         4.37896988242537      -2.77019972439424       0.76402896293868
N         6.21945359395256      -1.05944633409661      -2.05486690331208
S         5.26787019821736      -0.88953115950848      -3.37456245031487
S         7.43827173129635      -2.14988269425604      -2.01447084486435
F         4.32534414850736      -2.26055947624093      -3.56276840887621
F         8.75864553237243      -1.52229071026140      -2.82972242474297
O         4.37860488456393       0.30839941305309      -3.20154372682396
O         6.12219509254928      -0.71411070038607      -4.59822637028983
O         7.01399436330102      -3.42925503384997      -2.67938083576838
O         7.82040429336919      -2.42231808515067      -0.58775577522462
