44
C12H23F6N2P optimized with DFTB in AMS.
N         0.89967913367915       2.51654728014165      -0.70809210920176
N        -0.97174625204535       2.11753822028998       0.28148874554606
C         2.07217764209043       2.36813166960260      -1.56430070723516
C         3.06322232734477       1.36913740390730      -0.95363574910132
C        -2.20482309542799       1.45662530130661       0.69713933135302
C         2.59492454912290      -0.07932195846456      -1.10449386110096
C        -1.90444350121255       0.31084238917620       1.67224943027374
C        -0.17990200566333       1.73406600345546      -0.72034025667199
C         0.80947419324996       3.38959934146379       0.33979095872174
C        -0.37034913609353       3.13783661333776       0.96369621595186
C         3.57492108060905      -1.04729818164532      -0.43432910599915
C        -1.34458144657717      -0.92587532054399       0.96545001955136
C         3.06826332975562      -2.48542155317416      -0.51551678579500
C        -1.01864068716873      -2.02895008680537       1.96991946870620
H         2.53297393387841       3.35480350001069      -1.65573128685835
H         1.73534777856243       2.03788528501052      -2.55160759301116
H         4.02186969655489       1.50360744886788      -1.46323717165877
H         3.20228096158611       1.60791357544401       0.10351845181463
H        -2.82958718622550       2.21208719843460       1.18001770272613
H        -2.71567776992873       1.09080615603973      -0.19874947570319
H         2.49140286156100      -0.32469103398728      -2.16850444194854
H         1.61222419650411      -0.19094400256357      -0.63702915610030
H        -2.84133723286043       0.05499494019754       2.17596389454876
H        -1.19551008677300       0.66069596189747       2.42628074766191
H        -0.39668289489106       0.96508181772947      -1.44008444750591
H         1.59265676262241       4.08946100591308       0.56950572632743
H        -0.81057208334750       3.57734012268605       1.84066326545937
H         3.69484029406654      -0.76511356733038       0.61508129314251
H         4.55380811167808      -0.97254144067820      -0.92021109133941
H        -2.07254872526415      -1.29007524868316       0.23046603212931
H        -0.43098389382165      -0.65340494451136       0.42895509704986
H         2.94373815361344      -2.79444138997650      -1.55515854956501
H         2.10712468133588      -2.57828316858709      -0.00774329553778
H         3.77969528570967      -3.15752912340510      -0.03556347018195
H        -0.27001245997890      -1.67955864404216       2.67998428683125
H        -0.62450506946547      -2.90024759255329       1.44650281176210
H        -1.91326612410644      -2.32539953984021       2.51943171452435
P         1.86659391180895       1.13187363050623       2.94333803708796
F         2.49595371862855       1.64124429547352       4.34986860786299
F         0.48302827284337       2.02439061115463       3.21943918538014
F         2.52240438161265       2.44700559325078       2.15199892909806
F         1.19974329226802       0.64612801330838       1.47602058383033
F         3.21044319550229       0.25985572984675       2.59914491826461
F         1.16908344776278      -0.16364490046100       3.66500016791001
