66
C18H34F6N2O4S2 optimized with DFTB in AMS.
N         0.00395455499931       1.99104620423621      -1.06673847710774
C        -0.67238176908125       2.63714133456922      -2.24081259495629
C         0.63362586802973       3.14810878351388      -0.34647641973336
C        -1.00094935240320       1.34386664199949      -0.16114625956339
C         1.04309695709964       1.02377121167985      -1.55979862284549
C        -1.13889058580125       4.01183555413019      -1.76881918483639
C        -0.35844226725862       4.29718921205207      -0.47839422632679
C        -1.64378806001100       0.07369852051775      -0.71670313778051
C         1.88325870686495       0.39207259677858      -0.45640961832371
C        -2.77927042191481      -0.37069938349638       0.21309879284625
C         2.94974500348432      -0.50324903920705      -1.10014679640738
C        -3.43528646450267      -1.65641765799535      -0.29951601964281
C         3.88626481284562      -1.08772833320696      -0.03995866248225
C        -4.57026325576848      -2.10594854953621       0.62606281869990
C         4.97436597136424      -1.95030068618109      -0.68649818744998
C        -5.22571077878990      -3.38869666686685       0.11789579932213
C         5.91950070286253      -2.53296875152231       0.36277684353728
H         0.07357095763339       2.74270763896062      -3.02847683912773
H        -1.47782640749562       1.99785044956248      -2.59951323506861
H         0.84498894730114       2.87094502177347       0.68557844847911
H         1.56518951284873       3.38499592426160      -0.86269202689331
H        -0.49285986106641       1.11527780313290       0.77882071432315
H        -1.77166564825767       2.09233045135118       0.03912960663239
H         0.52651029787227       0.26366256540034      -2.14920160439841
H         1.69226138747332       1.59114676215458      -2.22802131571538
H        -0.90845677366100       4.74836038056030      -2.54200094550050
H        -2.21535652128080       4.02606874564603      -1.58677136207215
H        -1.03021905926279       4.33751094461060       0.38240749993763
H         0.17833230858802       5.24511652783928      -0.53702051151562
H        -2.04548792215634       0.24818200665423      -1.71818225268852
H        -0.90356928305514      -0.72731777302245      -0.78333380701734
H         2.37987465573443       1.17441322642017       0.12235000587194
H         1.26187123951768      -0.20029816321982       0.22213947059278
H        -2.38024050130780      -0.53767705868980       1.21922877910909
H        -3.52976668170510       0.42438612405416       0.27798177731229
H         3.53238156867980       0.08914077539376      -1.81129216368095
H         2.46196096457702      -1.31282739113615      -1.65369005536680
H        -3.82936434168025      -1.48607898862496      -1.30712107557066
H        -2.68069877308135      -2.44748716676385      -0.36528256040030
H         4.35356540174510      -0.26980585934409       0.51851988306379
H         3.30928738690736      -1.69159951165002       0.66994010624698
H        -5.32239824292128      -1.31241375405246       0.69048569139934
H        -4.17318455338165      -2.27305971096423       1.63299800422130
H         4.50708534706858      -2.76563138672617      -1.24946171507039
H         5.54646150234846      -1.34056112735134      -1.39304652066257
H        -5.64428557883835      -3.23567192999877      -0.87766834768713
H        -6.02930240756363      -3.68821774936187       0.79063373606030
H        -4.49512230161802      -4.19703082592781       0.06698423390972
H         5.37089531899576      -3.16078394497003       1.06681343595671
H         6.68525816612818      -3.14018567423454      -0.12035104054349
H         6.41021486739226      -1.73394667768572       0.92019322163216
N         2.41213510732059       3.72813558452084      -2.81950960557333
S         3.83337851514480       3.05156509477538      -2.48571930947887
S         2.09146426749500       4.15773211206015      -4.33414573604864
C         5.21375831511608       4.29993974254953      -2.72924668634020
C         1.94388247379109       2.59437907167567      -5.36809184259535
O         3.80152337194979       2.82189022310522      -1.05471250465284
O         4.16357266523025       1.92412529472896      -3.32832669075565
O         3.10214811742187       4.95625877967503      -4.97241918731288
O         0.73070737365342       4.64719439724442      -4.30058244262745
F         6.18444293922468       4.01052494528681      -1.87843871084003
F         4.76691332969051       5.51655582100579      -2.47216269733693
F         5.68421891024076       4.24619806382991      -3.95581312456388
F         1.07420604352243       2.80356913528229      -6.34308073114564
F         1.45903506254732       1.61496805577809      -4.59183116819435
F         3.08791501915393       2.21032509086524      -5.88404381085227
