51
C13H24F6N2O4S2 optimized with DFTB in AMS.
N        -1.10762339021300       0.94590946535895      -0.44280759884216
C        -1.90683358427812       2.14700256511909      -0.86883413025063
C        -1.86145434872928      -0.29460008174292      -0.83535938230981
C         0.18290879484439       0.98980546758353      -1.22406318657195
C        -0.85078283260359       0.93110928672116       1.03463957027833
C        -3.31700405868189       2.16191373065864      -0.29938471431534
C        -3.28772216040355      -0.33114281155743      -0.29922680211376
C        -4.06898950275274       0.90643453426257      -0.73533525945138
C         1.19026427220598      -0.10392722884268      -0.88633898675816
C        -0.04309529359329       2.11279764218437       1.55176323357580
C         2.31285002325810      -0.07497625446147      -1.93350638800649
C         3.35798760224926      -1.15049153973126      -1.65085973876590
H        -1.95988651624653       2.10856430251161      -1.95744320995735
H        -1.35004522112028       3.04006891071412      -0.58480275762722
H        -1.30089160119785      -1.15676418860465      -0.46992492702048
H        -1.88027307096025      -0.31540412711236      -1.92706633098168
H         0.62263653223593       1.97664366742695      -1.07009410025788
H        -0.09600606490284       0.91298879956161      -2.27465554185388
H        -1.81891478976453       0.90799095461315       1.53751255724121
H        -0.33016164527249      -0.00294536571270       1.25836574930288
H        -3.81529075122349       3.04940599572516      -0.69757403537105
H        -3.30807392050836       2.24591119084805       0.79165090891979
H        -3.29321454526328      -0.41947163799984       0.79159588558677
H        -3.75899645519803      -1.22977601170266      -0.70610530132566
H        -5.06662708811662       0.89126681965056      -0.29050349654416
H        -4.17317017693069       0.90570257062836      -1.82405203386453
H         0.71631730258095      -1.08911728651389      -0.90566401324301
H         1.61663415593989       0.04788593096825       0.11004916469518
H         0.07728329115439       1.98406086715008       2.62741880417460
H         0.94614151847585       2.15724645001834       1.10122795210609
H        -0.55449514901802       3.05738295723620       1.37717188196331
H         2.78762318277274       0.91050131328128      -1.92795974847146
H         1.87922790693142      -0.23348590087075      -2.92512011810472
H         2.90426095143829      -2.14227430988553      -1.67530743695174
H         3.81172011789691      -0.99940891510683      -0.66999188109677
H         4.14199647144933      -1.10885997224649      -2.40654962510697
N        -1.29847081953575       2.37549765906295      -5.29220606261116
S        -0.30111554441504       3.35493809770605      -4.49909036262920
S        -1.49939482260217       0.92177007977354      -4.66885769452030
C         1.44336143458270       2.82547367530903      -4.96566315757477
C        -2.19682378965930       0.07319825930066      -6.16098056778626
O        -0.45049761945116       4.66861125928290      -5.05621294182014
O        -0.32249892854106       3.22425662419615      -3.04887812675927
O        -2.56624052399557       0.84628169419423      -3.67449047379063
O        -0.28560681524156       0.20174145659953      -4.31721901916018
F         2.18443391201870       3.89375789161370      -5.20300798953272
F         1.43116466977450       2.06157056824690      -6.04373106011204
F         1.99288878353256       2.14694543092977      -3.96366799530258
F        -2.47443295389826      -1.18238807986213      -5.84547411515837
F        -1.32298357566757       0.08627257189871      -7.15075233322932
F        -3.30704508985577       0.67203376361759      -6.55477370119283
