60
C18H36F3NO2 optimized with ADF in AMS.
N        -0.01253505927819      -0.01513748774247      -0.08073093316795
C         0.85810154008087      -1.00105156413152       0.66866803151907
C        -0.89137150121609       0.72071084490271       0.91508431739923
C        -0.85909697151571      -0.77947789437704      -1.09129857801390
C         0.82604438511522       1.01470536835711      -0.83663979592090
C         1.91077853338500      -0.40915321332743       1.59071418623712
C        -1.95619910782362       1.62160220985275       0.31512338331021
C        -1.88049098807224      -1.74124381461037      -0.51406482789237
C         1.85229526555082       0.44492377523447      -1.79810436923139
C         2.64328104246389      -1.53601117053839       2.32537461517627
C        -2.73553638261618       2.31525061122500       1.43445979128410
C        -2.65211518059946      -2.38607376712507      -1.67115456371756
C         2.67629791917071       1.59604759473324      -2.38392128767917
C         3.72449664975741      -1.01114803323898       3.26490452420662
C        -3.80825158657820       3.25049648113899       0.88239814397471
C        -3.70796562726045      -3.37117066192425      -1.18230791714456
C         3.59154948443600       1.11381022882997      -3.50405218493993
H         1.33544155870890      -1.62955198210566      -0.09707775895911
H         0.16950454902560      -1.63809522099310       1.24231115141497
H        -0.20634336989866       1.31188294000532       1.54040273337802
H        -1.34840476397859      -0.05158876159070       1.55319874038600
H        -0.14203239600421      -1.32029632336407      -1.72425735022604
H        -1.33869325367586      -0.00897185774912      -1.72219049789300
H         1.30573617293309       1.63613880765110      -0.06435364864978
H         0.10339050971679       1.62028638738039      -1.41010470436901
H         1.45351356731153       0.26290048794439       2.33598767949231
H         2.64150191785419       0.18313648601083       1.01579353496575
H        -2.65179571032082       1.04443138319174      -0.31346292405841
H        -1.50939188895746       2.37252201686249      -0.35409961802395
H        -2.59938012251967      -1.21383908648379       0.13603468464454
H        -1.40905718809674      -2.53599849073601       0.09114427340865
H         1.34518381747907      -0.06424038742770      -2.63393076865576
H         2.52859409182786      -0.27968319083133      -1.31030617487359
H         3.09298925834174      -2.22002445878962       1.58327842681323
H         1.90932174745555      -2.13262930805791       2.89696104765320
H        -2.03605454367792       2.88733576135592       2.07190588789796
H        -3.20310761347186       1.55418922286094       2.08669841310055
H        -1.93881547464025      -2.89651908625599      -2.34152967323131
H        -3.11787970653519      -1.59106887686728      -2.27699682295987
H         3.26314120123042       2.07728867338615      -1.57912221445840
H         1.97307078890807       2.33883870400510      -2.79672726168203
H         3.29352231327297      -0.34027309418062       4.02493720355787
H         4.48888814868371      -0.44525120329496       2.70904825952815
H         4.23026594520918      -1.83460926948580       3.79017713772103
H        -4.52388402411101       2.69718394391987       0.25432064900592
H        -3.35611914060129       4.03429325094915       0.25547758593311
H        -4.37039046566389       3.73900433523254       1.69191163971614
H        -4.45028305938210      -2.86883514417821      -0.54102594248008
H        -3.25155275431933      -4.18551817697390      -0.59637231956030
H        -4.24813245295224      -3.82390172482178      -2.02670760555192
H         2.98252844400272       0.73286431831416      -4.33843966029968
H         4.26361973875755       0.30911445576166      -3.16090457316882
H         4.21216767330456       1.93580886573307      -3.89000414938243
C        -0.85217311424771       1.35476971386645      -3.87289794909195
O        -1.50922885922390       1.59258731539375      -2.81822414220859
O         0.20444006402973       1.84519597657249      -4.30883525700939
C        -1.41386263329405       0.17100890237410      -4.73677255498345
F        -1.31769724633445       0.37844896381258      -6.07676905485016
F        -2.72091015654402      -0.14564039607543      -4.47604468208857
F        -0.68433051610185      -0.98170959337992      -4.46030885160140
