40
C10H22F6NP optimized with DFTB in AMS.
N        -0.61070798948147       0.37074974380083       0.03028722470693
C        -1.58420958805702       0.82422668138873      -1.01926863915875
C        -0.87537297104237       1.30866506668511       1.17425760966188
C         0.78812088715315       0.52537335070188      -0.48905983810334
C        -2.84466889910281       1.23144973307926      -0.26560655318271
C        -2.37718425014059       1.57790962866198       1.15501640794662
C        -0.90549115994154      -1.03001653510333       0.47689952505597
C         1.87055106005265       0.18990425661048       0.53179155428925
C        -0.62498653520888      -2.10578434715250      -0.56265268223896
C         3.22653277275332       0.66344350934072      -0.00790442093400
C         4.35203703138451       0.34570813882788       0.97331900162307
H        -1.74565686768656       0.02795488084853      -1.74458557677096
H        -1.14121995387246       1.68660493840441      -1.51824935717721
H        -0.53267849416330       0.85797516383217       2.10577342105752
H        -0.31558346536157       2.22386451608641       0.98143294176308
H         0.87942984014142      -0.10243570551049      -1.37788188155687
H         0.88761605591484       1.56726151490221      -0.79399354551550
H        -3.29595152431806       2.09663388431747      -0.75289055210789
H        -3.57690621599164       0.42057994984762      -0.25085614191609
H        -2.89798988136220       0.96956680388155       1.89803582816305
H        -2.55790776810246       2.62993224551826       1.37945737163728
H        -0.30314679586175      -1.21754809621614       1.36900324932523
H        -1.95969164280430      -1.05513062259315       0.76214197464115
H         1.66761738330549       0.70011534865888       1.47685031642291
H         1.90419707534977      -0.88680920158497       0.72614175598805
H        -0.96897483198749      -3.05671823241099      -0.15615375125373
H         0.43918295632398      -2.19187091206939      -0.77399442182168
H        -1.15678004987297      -1.92121936997138      -1.49421355476540
H         3.42636593342695       0.17624589795297      -0.96778881825882
H         3.18294215524725       1.74318750268707      -0.17898441863488
H         4.41769292678454      -0.72912306633846       1.14947044593305
H         4.17912444368825       0.84520087382255       1.92725686789594
H         5.30281766935609       0.69071722868530       0.56795955030874
P         0.15669931264737       4.40930383381705      -1.05058671476419
F        -0.73249446404725       5.21239041123612      -2.14858563809583
F         0.02311191933401       5.61364543987460       0.03232112061022
F        -1.24492280344667       3.70530687105124      -0.43521517819061
F         1.02893878945699       3.50308872041149       0.07132056332987
F         0.27186721629221       3.09963905720308      -2.10037249173805
F         1.54584409154056       5.00755451721498      -1.64226819917433
