25
C7H10F6NP optimized with ForceField in AMS.
N         0.15698072948592       0.00078559228469      -0.38046569554183
C         1.59349171564397       0.00172508987298      -0.68368803190091
C        -0.50759028474221       1.18804306554967      -0.23566457975907
C        -0.50626326361489      -1.18730540881336      -0.23639266832180
C         2.40719295956822       0.00041715050909       0.60445273410299
C        -1.87525470286397       1.20503131413933       0.04988849261135
C        -1.87392799170059      -1.20597730423185       0.04912571389749
C        -2.56011370780771      -0.00089164293794       0.19019403165561
H         1.86416593610350      -0.89052532143073      -1.29002971888958
H         1.86350481413105       0.89570656716192      -1.28775078643734
H         0.01829697148292       2.12967227805948      -0.33883924787717
H         0.02067022967755      -2.12828184597711      -0.34020546529033
H         2.17149466921289       0.90578688796611       1.20383375999551
H         3.49111130219387       0.00343003343935       0.36571605069740
H         2.17563581636598      -0.90918500192972       1.19889646591767
H        -2.39888665521067       2.14583090329941       0.16098087252755
H        -2.39655286582020      -2.14741080863622       0.15960156708558
H        -3.62057493549232      -0.00153313892295       0.40920781463070
P         1.29932039388077       0.04035921085968       5.30927312999061
F         2.68508626400041       1.03850762850305       5.49920868496749
F         0.33453489944235       1.44076866705146       5.06355197689624
F         1.58929208385509      -0.02702606127441       3.62041567267679
F        -0.07661956592944      -0.96201144752080       5.07634798218771
F         2.28732074697033      -1.35031869301072       5.51524225954606
F         0.98511830846718       0.09602649528959       6.99748391733127
