60
C16H30F6N2O4S2 optimized with ForceField in AMS.
N        -0.06743410527281       1.47712105669617      -0.00167172493410
C         0.52051070249138       2.40924137390309       1.00990046425062
C        -0.72799478364268       2.36558039522177      -1.00656927805140
C         1.01786384997938       0.69163795238152      -0.67438908900962
C        -1.08359564874599       0.60052316876111       0.66643976865285
C        -0.00414673991661       3.80463497684230       0.73156122111881
C        -0.27999702687585       3.78988611803542      -0.74520200577715
C         1.76933098998103      -0.29528579252989       0.25090593696887
C        -1.77960480891363      -0.41648074581386      -0.26974031720769
C         2.97996358907938      -0.89661005819795      -0.47411027203092
C        -2.87674762447090      -1.17676178621217       0.48721975971304
C         3.71206675713658      -1.91229170622222       0.41019812914295
C        -3.59500176588012      -2.17749706338167      -0.42502131862892
C         4.90593000742935      -2.51704347295599      -0.32244301304147
C        -4.66443218467583      -2.95179576830283       0.34157842249287
H         1.63126884040168       2.46291793462356       0.93975556765025
H         0.28795065868013       2.12358483217152       2.06167811900459
H        -1.83803976756010       2.35652576674816      -0.91113498628254
H        -0.50070985282413       2.08601601506409      -2.06107629708126
H         1.76094058847954       1.39413402292092      -1.11962305131689
H         0.60916934153502       0.11675252823837      -1.53458248165871
H        -1.86958663517842       1.23717598466540       1.13612350559712
H        -0.62040651473144       0.03975416505670       1.50825563490310
H         0.73605548178536       4.58818745132275       1.00411203131757
H        -0.95140237210600       3.97134114407161       1.29136926611810
H        -1.06240716000422       4.52854367576564      -1.02524440418947
H         0.65648234053228       4.00207387013741      -1.30768210862639
H         1.09306766083695      -1.12423890004618       0.54750877885359
H         2.11903778225671       0.21696274542003       1.17179326814854
H        -1.04345620740122      -1.15584383912544      -0.64765514405873
H        -2.23434542617759       0.10118720127922      -1.14026957069429
H         3.68265234486898      -0.08028198601847      -0.75296574099003
H         2.63585293723425      -1.40068770852043      -1.40414554856145
H        -3.61885280921873      -0.45137814424598       0.88795947938606
H        -2.41784627590179      -1.72182319952402       1.34160473429365
H         3.01675081250874      -2.73030305922348       0.69878931602809
H         4.07330258910939      -1.41140507038749       1.33482815609206
H        -2.86021323973277      -2.89895752320587      -0.84410172044556
H        -4.07780681660804      -1.63542437039209      -1.26721586223370
H         5.43471520289136      -3.22923409277654       0.34547070498092
H         4.56872220681190      -3.06227547395887      -1.22962738974889
H         5.61389466074978      -1.71771130247744      -0.62145823129488
H        -5.17000369636974      -3.66570068472917      -0.34229319086159
H        -4.20413191930913      -3.52515343983188       1.17450525487201
H        -5.42602171871277      -2.25551060286804       0.75321134384569
N         9.14495613985149       0.38009928765430      -2.06454176859373
S        10.57398005740366       1.14695057692167      -2.30594829697815
S         9.00101824931549      -0.97612988394189      -1.15382326605855
C        11.33150914081441       0.51351792103990      -3.78787248131419
C         8.42546964350668      -0.52272795334266       0.46951371759820
O        10.32259931417948       2.61795747268300      -2.48220570799126
O        11.49580273011934       0.93229459964361      -1.13772094920376
O        10.32078388204212      -1.68709616691459      -1.03918181997625
O         7.99489376821544      -1.89251642724650      -1.79019010290380
F        12.52960381142085       1.16395588851759      -4.01341504858243
F        10.48774295820622       0.72357397767565      -4.86188661816372
F        11.56473337568655      -0.84077355219291      -3.64747695441868
F         8.25357682311599      -1.65791264929093       1.23858544135894
F         7.22083321746233       0.14571040905808       0.36345713561289
F         9.35343312671133       0.30377934195689       1.07284575540878
