49
C13H16F18NP optimized with ADF in AMS.
N        -0.70556044676179       0.50875471520665      -1.24020094093041
C        -1.37055863238119      -0.75247613533664      -0.71353006596304
C        -0.35893724777882       1.23856130264967       0.04096214447078
C        -2.23443573239343      -0.27142872419924       0.45140839888570
C        -1.58155548489782       1.05027167323144       0.93918859400235
C         0.53834949929853       0.20373377691665      -2.04871690671225
C        -1.66493462260710       1.33635966698128      -2.04694298871300
C         0.30167315951553      -0.70347057412720      -3.23828833896524
H        -0.54840822747451      -1.40203159229349      -0.37687426049423
H        -1.93019260236537      -1.23600290407239      -1.52032272851280
H        -0.10288553541447       2.28040031097174      -0.19368294860697
H         0.52530790326574       0.73085588363407       0.45428545802265
H        -2.26388433833756      -1.03872964985720       1.23750295462154
H        -3.26869231174382      -0.10966968882276       0.11964357370302
H        -2.27720485431764       1.89602250205677       0.84098296878475
H        -1.27428458222715       1.00544237495176       1.99340547331366
H         0.94082054318484       1.18184225346833      -2.35754413820233
H         1.24665704161922      -0.25140974098714      -1.33852393775020
H        -1.94072653794325       0.79148588149518      -2.95211540575673
H        -2.57202292370237       1.51239003739971      -1.45975247500094
H        -1.17285764391303       2.28679500300231      -2.28972943546496
H         1.26416885840361      -0.83899312590014      -3.75462636493975
H        -0.06046614036019      -1.69573610421983      -2.93959247305336
H        -0.40870535417325      -0.28716067832995      -3.96308216311506
P        -4.10116135354458      -1.60156024641590      -4.34883338673328
F        -2.69510186619388      -2.16867719590217      -5.04842569494230
F        -5.01455749091386      -2.19438366112743      -5.58562892193515
F        -3.20381955682222      -0.95281070407955      -3.03999829123570
C        -4.18547116726759      -3.32340630973305      -3.35833403197543
C        -3.69115795196904       0.08293501466230      -5.33248221500695
C        -5.79777238217402      -0.91154319982626      -3.52935123224507
C        -2.90240345601379      -4.21551850943144      -3.29481821008393
C        -4.00319236227749       0.14334816148180      -6.85695659572484
C        -5.80458519814985      -0.05491866098100      -2.22146326881853
F        -5.14817110131096      -4.15728811009444      -3.86902721044293
F        -4.49403159766628      -3.09689845288760      -2.02659992668737
F        -2.31771839493445       0.32329853757896      -5.24388131708412
F        -4.27394050052822       1.20477770688952      -4.78733410398811
F        -6.62140519181195      -1.97849533054427      -3.24284561566716
F        -6.46697470575081      -0.15004719947602      -4.46102400097933
F        -3.13548781044491      -5.26902395899617      -2.46058527189524
F        -1.83435673539553      -3.53442381732982      -2.77545318384807
F        -2.55346815628645      -4.72020729652932      -4.49216943964372
F        -3.52402003754792       1.31940736261065      -7.36511795536747
F        -3.40631931393392      -0.86587663029604      -7.52627600788692
F        -5.33147167759301       0.10989096613330      -7.09397588336452
F        -5.30798782698612      -0.73372407362821      -1.15467418538267
F        -7.08381904023645       0.29324145152436      -1.91831688174231
F        -5.09050315784140       1.09691770717821      -2.33378146974206
