55
C15H20F18NP optimized with ADF in AMS.
N         1.40574197967302      -0.54496119710463       0.55702924477618
C         0.05431073732810      -0.62404435981460      -0.12374221451608
C         1.76991225879029      -1.91900273536528       1.11109574689062
C        -1.04067904890923      -1.17004378302658       0.77572422425665
C         0.68435966959731      -2.51467089087158       1.99281738476686
C         1.40841552283554       0.46029819965864       1.69940539647724
C         2.41355393213072      -0.15576233439698      -0.51602652239339
C        -0.66950604778930      -2.56006490328234       1.29067717959879
C         1.06115179424652       1.87943461119162       1.30942188126797
C         3.82780144774691       0.08383050188380      -0.03296189345291
H         0.19908594798130      -1.28910271260300      -0.99088519937518
H        -0.17302235577790       0.38220570780435      -0.50164229347247
H         2.70475178726830      -1.80009958109711       1.67344103551179
H         1.94751662614546      -2.55320627845306       0.22684012827839
H        -1.96808795024543      -1.19920017705563       0.17993043907936
H        -1.23274000279889      -0.48215747162106       1.61667066215764
H         0.62077017163253      -1.96117424451035       2.94120237558089
H         1.02654471674364      -3.52526268723666       2.26940415595736
H         0.70946893254924       0.07891923463965       2.45165210934591
H         2.40632481828423       0.39786077754425       2.14635643501955
H         2.37706558047447      -0.97678099189155      -1.24919654436943
H         2.00335283259111       0.74223861034740      -1.00237270822605
H        -1.44439758378093      -2.93682198556310       1.97686351284799
H        -0.62632000083743      -3.26141512711623       0.43612402841835
H         1.15161770551901       2.48744320248803       2.22231195357652
H         1.75626000497787       2.30488477525951       0.57191256357236
H         0.03073722350881       1.99113146109998       0.94176551684273
H         4.45210585334548       0.26651795331919      -0.92150003248688
H         3.91047777787455       0.96244931893297       0.61772337428500
H         4.25202162187782      -0.77563463743017       0.50221900505114
P         4.50703327075544      -0.65111363226774       4.75749223450222
F         5.98611848119130      -1.17857907597142       4.21796361012686
F         3.98799648990394      -0.54809949005674       3.13050951070612
F         4.94150676582119      -0.73366165849823       6.35189225950083
C         3.96320423108746      -2.56147943701468       4.83086551431948
C         5.30372818659464       1.16907343222463       4.67552287680840
C         2.65511473673265      -0.00418246298665       5.22576064309885
C         5.08816569453151      -3.64694998913463       4.88962470984045
C         5.49289912636967       1.84837405013305       3.28962832686123
C         2.22271944106655       0.28071520396710       6.69659793211234
F         3.19808891230094      -2.94382650071837       3.73044332990615
F         3.19365819014764      -2.79753494088320       5.94372113067613
F         6.57088964897234       1.09874995162377       5.20607509732924
F         4.62544441724565       2.09624929682606       5.43530255328022
F         1.71390789254286      -0.91698536899617       4.75928285124457
F         2.38272986994022       1.16634752274264       4.53573184021057
F         4.50637499046617      -4.85924263878658       5.14279116558395
F         5.97992890301731      -3.40673331988028       5.86894551905372
F         5.74160113078167      -3.76495676543134       3.70707653737529
F         6.18493624306871       3.01009111667213       3.43677141473564
F         6.17441494163162       1.06817744125870       2.42070382129712
F         4.29409019532532       2.17523878148728       2.71681050789150
F         0.93499958019701       0.75381705843675       6.68487672095948
F         2.99403888217656       1.21264738099789       7.28612820648788
F         2.23722720494850      -0.83668299307345       7.45048673272485
