58
C16H22F18NP optimized with ADF in AMS.
N        -0.75787523891757      -0.49187046237931      -0.19635222718281
C        -1.70428586789018      -0.17589307069654      -1.34552456355115
C        -1.36070835018860      -1.59153709475083       0.66908938324053
C         0.54292014997278      -0.98457492168182      -0.82657695636664
C        -3.11954417901235       0.14393904565373      -0.89610208942445
C        -2.77445026497054      -1.28242131421969       1.12707109531359
C        -3.69436880533147      -0.99452019530744      -0.05603069212791
C        -0.49565957476877       0.73307571126189       0.61522178276298
C         1.63439865416924      -1.42367410113605       0.13188004037573
C         2.81572871783364      -1.98400519260011      -0.67259230687015
C         3.94977988273489      -2.45740367451334       0.23132088884262
H        -1.70380633992757      -1.07629466715765      -1.97620586200987
H        -1.24494865325251       0.65104009524345      -1.90831058766993
H        -0.68062091186944      -1.73680599764870       1.51686646728222
H        -1.34250295603253      -2.49945931284164       0.05560353185928
H         0.88843722491556      -0.15620681576952      -1.46727498921576
H         0.25281153048743      -1.82601369739324      -1.47071017056587
H        -3.71565788712017       0.29836933844362      -1.81095549888882
H        -3.15472542086891       1.09669379222656      -0.33991033029668
H        -2.78647487490507      -0.44170704740014       1.84269379949731
H        -3.11757487430464      -2.16974690846205       1.68392431842563
H        -4.70683342567654      -0.74014933225664       0.29387621809487
H        -3.77952136133529      -1.90249470585278      -0.67824566253049
H        -1.43885511321194       1.12296508624252       1.00915808078605
H         0.16926405645185       0.47097349636814       1.44548437420204
H        -0.01935711783452       1.48475839351525      -0.02728768598834
H         1.26997585770492      -2.21884201478997       0.79991156728715
H         1.98774433995511      -0.58279461470986       0.75344734367437
H         3.18659907231222      -1.21060947292084      -1.37000781952103
H         2.45968638192248      -2.83066627149057      -1.28320517839192
H         3.60619363712903      -3.26510547838446       0.89453245975033
H         4.33645400027681      -1.63554201581422       0.85504882780334
H         4.78315540767679      -2.85029488380048      -0.36863561264188
P         0.12290780125521      -6.87956821060097      -0.75098714036565
F         0.68566253190901      -8.38259203859129      -0.36467331749776
F         1.63752498911220      -6.17995129301273      -0.70841445685402
F        -1.43667923805071      -7.45152499333418      -0.81680682888860
C         0.50004811639139      -7.40506913800627      -2.60768014354353
C        -0.00557244231924      -6.56958922334966       1.26901663990694
C        -0.70808375447666      -5.03881375521614      -1.12757111514612
C        -0.39828075859791      -8.47714283111691      -3.29754631823453
C         0.43708764694378      -5.26861903858751       2.02852512624042
C        -1.32124486378026      -4.48479687220915      -2.45790670218570
F         1.77560025268387      -7.91833572593277      -2.66525413170336
F         0.49397777157287      -6.31302947642158      -3.46073183909009
F         0.81772609808091      -7.50597694126573       1.86026505453561
F        -1.28404045320870      -6.81767097650479       1.72276025826813
F         0.20229688081222      -4.04047642172259      -0.76368174410962
F        -1.76821282492973      -4.93203704115311      -0.23976947333999
F         0.12773002204745      -8.77513716398411      -4.52346700150462
F        -1.66034422180061      -8.02792424611826      -3.50276574378428
F        -0.45795392236168      -9.62151112517195      -2.58639752795505
F         0.48718866603388      -5.52607934755988       3.36560005233464
F         1.66612118447873      -4.83939407274350       1.65261178886558
F        -0.42916859459419      -4.22079374385146       1.88673235269140
F        -0.39097667048386      -3.97535603498332      -3.29795873749578
F        -2.14966646168090      -3.40332369156444      -2.14998972047241
F        -2.08116535766124      -5.37826044657500      -3.09841955852597
