34
C10H18F3NO2 optimized with DFTB in AMS.
N         1.04834674934247      -0.39776778255278       0.13539705393118
C         0.60843417964049       1.03814132577331       0.04648414159942
C        -0.00774512336066      -1.28847843793821      -0.43745020998605
C        -0.74456326872398       1.28779736637777       0.69625417515162
C        -1.37094532972778      -1.08131807550631       0.21431485440583
C         2.30883010644158      -0.50556816503599      -0.68960818035680
C        -1.81511791037697       0.37599259286890       0.09964954293449
C         1.34877173571432      -0.75504686594544       1.54889506182711
C         2.96024488677784      -1.87747241140440      -0.70111478563215
H         0.56203797025741       1.28885757674811      -1.01674030490300
H         1.38617659928934       1.63932800681076       0.52439880387378
H         0.31972206414925      -2.32131435607945      -0.30440163729790
H        -0.06726565204203      -1.06929582451981      -1.50746886360856
H        -1.00434800981269       2.33393535262823       0.51592451930250
H        -0.68753189194316       1.14401233422861       1.77814041300946
H        -1.34061394465047      -1.38418086073898       1.26431720791329
H        -2.08396280327014      -1.73171926860375      -0.29918205196175
H         2.04401162988693      -0.20485543605630      -1.70668779255422
H         3.00465312238851       0.22514869965107      -0.26949621249738
H        -2.76100022154507       0.51531684470612       0.62810233826574
H        -1.97175125710827       0.62970860651262      -0.95385623382013
H         0.47815485218858      -0.56599583481609       2.17032101372625
H         1.61238058141047      -1.80810227826785       1.60367545702935
H         2.18340785260492      -0.13687476940032       1.88018461876306
H         3.85424924982885      -1.79656733405017      -1.31899969063450
H         3.27505889191272      -2.17922304267344       0.29546221571521
H         2.31334173041597      -2.64351635527070      -1.12741356221777
C         4.45409447188876       1.60800736134499       1.68486379952972
O         3.26605745932150       1.56648368345111       1.32618806215012
O         5.16467841362618       2.47050677930115       2.13762702034284
C         5.16074396814625       0.14029879868628       1.46438629769825
F         5.26657190129761      -0.14896907601499       0.13926987125437
F         4.36877521731851      -0.85076899970725       1.97193638248478
F         6.37071023131281      -0.02703685390678       1.99599409336186
