35
C9H20BF4N optimized with ForceField in AMS.
N        -0.05134162523656       0.24457585148147       0.15878139843228
C        -0.96909286258852       1.23446146349794      -0.49114459932190
C        -0.49611699149904      -1.15014995497631      -0.14905117957299
C         1.31432730659118       0.48734831969777      -0.41758849849402
C        -2.46087137226181       1.01705779436256      -0.17970292236491
C        -1.97616006990603      -1.41439911694622       0.18327898385124
C        -2.88539134836215      -0.40852725081642      -0.51437451596243
C        -0.01475421435097       0.47631962934567       1.62893986961848
C         2.45009089047709      -0.40545739358809       0.14010536709948
C         3.77818015429448      -0.08464586707545      -0.54250390744824
H        -0.86253465059466       1.19017221524300      -1.60050035582933
H        -0.70017017340107       2.27289237886865      -0.19070134326966
H         0.09866361538301      -1.89275102118551       0.42524036914408
H        -0.34234260053176      -1.37538468431599      -1.22954593734547
H         1.61052299169434       1.54917255760046      -0.24892726949298
H         1.29043875839120       0.34556320556060      -1.52324784452998
H        -3.06189852046551       1.72170095089173      -0.79456184205114
H        -2.68824149151246       1.24790394935734       0.88163522177584
H        -2.14344854263340      -1.38095304319885       1.28078491618435
H        -2.24624996584021      -2.43764930794439      -0.15673422375975
H        -3.93520055578490      -0.56787330066581      -0.18584906403878
H        -2.84074612932639      -0.56420770361625      -1.61482764527665
H         0.57024462865332      -0.30927934992533       2.15195796666733
H         0.43063835169545       1.46787444127563       1.86691690449789
H        -1.02197026342580       0.44907525364363       2.08705918170489
H         2.58832114986460      -0.23581872770466       1.22736316336319
H         2.23413033980602      -1.47860236655385      -0.03484729950350
H         3.70415993119781      -0.25715982436646      -1.63756371145472
H         4.06269394910424       0.97169230251135      -0.35480751182089
H         4.57599914729498      -0.73969485100594      -0.13299798044655
B         4.27754275948643       4.65591657656126      -1.01409946511065
F         4.17195274037265       5.07850048276032       0.33774036763844
F         3.68017674034286       5.62587250384499      -1.86198591402475
F         3.60935155948556       3.41422270793514      -1.17565645622707
F         5.64752351018601       4.50552878374602      -1.35757878123112
