32
C10H14F3NO3S optimized with ForceField in AMS.
N         1.11273243061306      -0.00141559542927       0.55248147677372
C        -1.23721419586857      -0.00322663479541      -0.14889983826994
C        -0.27194436912482      -0.01205096829284       1.03946723321717
C        -2.69864724745989      -0.01711348388130       0.30863625590337
C        -3.63813889301367      -0.01591095702287      -0.89413908074310
C         1.73916489417592       1.19156390897864       0.31368638290314
C         1.74687155957339      -1.18392262293950       0.28382314728259
C         3.03653341917298       1.21989737834341      -0.20296328675316
C         3.04436733963523      -1.19090990231192      -0.23325102669934
C         3.69054042668876       0.01986138065223      -0.47713752404931
H        -1.04015197484249      -0.89697228231225      -0.78085454315754
H        -1.05056111479797       0.90697388361557      -0.76020721795420
H        -0.45208632140378      -0.91362531567957       1.66714921041821
H        -0.45956330359866       0.87422433444989       1.68640293128099
H        -2.89411929522175      -0.92537067100584       0.91955293880509
H        -2.90737106921750       0.87946517682395       0.93244272939261
H        -4.69075020344069      -0.04624482841882      -0.54920703555060
H        -3.48885800657963       0.90442170133211      -1.49823104697541
H        -3.45094305090009      -0.90668035840436      -1.53088177565540
H         1.23240391438603       2.12938318417349       0.50890314291373
H         1.24624209772570      -2.12965327461530       0.45542999459050
H         3.52615265221919       2.16534033483075      -0.39692798279104
H         3.54011427512813      -2.12798506961123      -0.45084140975435
H         4.69323604065212       0.02821760705261      -0.88377583787091
S        -7.11295080204667      -0.44825449774758       2.40448099905023
O        -8.40747615540550      -1.04839896222778       1.83660855145857
O        -6.55942619744689       0.36288918738072       1.22494822870047
O        -6.16625561991436      -1.65562938250534       2.47490903270927
C        -7.30281505659403       0.48308349750477       3.94809284622377
F        -7.86093842041302      -0.33287894280590       4.91303040000692
F        -8.12730689050043       1.57003209930266       3.72991220437508
F        -6.06454231388012       0.92256912556624       4.37515735571886
