67
C19H28F18NP optimized with DFTB in AMS.
N        -2.12119330356589       0.49309720266615      -0.08420487227525
C        -3.54581461402258       0.92584303186752      -0.29048489780785
C        -1.46297761241535       1.45648363377304       0.85972010996982
C        -1.45036953025417       0.59300413859727      -1.43339503565966
C        -2.02582797635261      -0.90300592034079       0.46986861214548
C        -4.33234286528715       1.03601039738466       1.00566814139112
C        -2.20779324500611       1.61374118260040       2.18221664189913
C        -3.66196004421257       2.02498211660702       1.95588026082030
C        -0.00561490899033       0.10509420316516      -1.48207374585695
C        -2.65473153009984      -1.98566412867525      -0.40339937166728
C         0.61059686415668       0.49563376640496      -2.83290611151146
C        -2.43751042863656      -3.36222777946652       0.23444032665448
C         2.04248920574890      -0.01975950429663      -2.95094674676155
C        -3.07738741837998      -4.44937551769267      -0.62706698385695
H        -4.01367096871921       0.21208083652488      -0.96350645753274
H        -3.50934984912183       1.89756185422716      -0.78868818901267
H        -1.41668485938622       2.41996691636473       0.34470160286053
H        -0.44593259654636       1.10524298470284       1.04342203299650
H        -1.50116349730892       1.64505829896365      -1.72432506846222
H        -2.05902318705926       0.02209818510814      -2.13389245878726
H        -2.51131741102903      -0.89981233099467       1.44727738362310
H        -0.96326512511006      -1.10770814318861       0.62298300421129
H        -4.43585303310767       0.05819077657840       1.48288291151807
H        -5.33450206225608       1.38465037129929       0.74525988642739
H        -1.68679210594294       2.38445873149627       2.75662319180983
H        -2.16426132882744       0.68653695417122       2.75990542092852
H        -3.69598277457933       3.03020791922855       1.52402218548850
H        -4.19041102093839       2.04605722442742       2.91155461118598
H         0.03184765165944      -0.98219091441888      -1.37387679889555
H         0.58786606931347       0.54772065049349      -0.67658156540211
H        -2.21368783002694      -1.98252757009880      -1.40135174647211
H        -3.72696371167624      -1.81139432744195      -0.50733619227424
H         0.60191568469496       1.58577850771342      -2.93307080794800
H         0.00476377380487       0.07828455621130      -3.64075557711177
H        -2.87990615874052      -3.37620592009201       1.23652614571655
H        -1.36402494187987      -3.55483206569109       0.33775679596528
H         2.06417777739904      -1.10766433242585      -2.87739432763399
H         2.66878152486861       0.39575073690860      -2.15997716112170
H         2.45966013423607       0.27131258517687      -3.91450028055627
H        -2.62795768760161      -4.46082224981056      -1.62018740780800
H        -4.14715058304902      -4.26870800056335      -0.73340190824143
H        -2.93046378550971      -5.42506069305094      -0.16455026097144
P        -4.69876146490421      -0.79468645914707      -4.24643035830729
F        -4.84950860692530      -2.45842731055174      -4.34462547224880
F        -3.99567288836381      -0.97802240499826      -2.67931798846557
F        -5.35936792938994      -0.54922672472027      -5.75473371260366
C        -2.92909585738116      -1.01053786480240      -5.06236727960133
C        -6.49845667074312      -0.84295111882485      -3.46710171827955
C        -4.42530708439023       1.17722310423497      -3.94728241177792
C        -2.64483905981672      -2.30595573553192      -5.87019911844233
C        -6.64475082815055      -1.34889213056842      -2.00606434258034
C        -4.89652110661271       2.25858254988716      -4.95379393672347
F        -1.94357318268378      -0.95901125927507      -4.12892601715683
F        -2.72013033450312       0.01891784780711      -5.89967439690008
F        -7.24755940893889      -1.65957962025400      -4.22291271648385
F        -7.08300824773389       0.36852945979189      -3.50774109803634
F        -3.09881857596449       1.40092017785556      -3.75901143571489
F        -4.99965811836388       1.49133309499580      -2.75737856560252
F        -1.50610548720971      -2.16353568111543      -6.55688539770479
F        -3.61000001161561      -2.58191357571054      -6.73483948098266
F        -2.48730923938765      -3.34566699580320      -5.05251234629170
F        -6.01215828493932      -2.50146474955802      -1.80271725510388
F        -6.14263784293762      -0.45767640018161      -1.13421407531125
F        -7.92564209407030      -1.52551279040426      -1.69139780307673
F        -4.66663928733398       3.47588943906283      -4.44418748211908
F        -6.19504787153970       2.16294967596884      -5.20720641339596
F        -4.23570632564254       2.16934740112914      -6.10156958247264
