27
C7H13BF4N2 optimized with ADF in AMS.
N         0.77394360686424      -0.61693533295056      -0.52515505418472
N        -0.87754257507091       0.69225261844026      -1.03722861070809
C         2.12176450915684      -1.21025133314369      -0.50131885313262
C         2.76513015420265      -1.07847278314380       0.87693106373502
C         0.37549838554544       0.34979220709385      -1.36059540585581
C        -0.24558947222288      -0.88917736289558       0.36581095903194
C        -1.28092272516702      -0.06007551194056       0.04692921425337
C         2.93494820365554       0.37123151649166       1.31971602667619
C        -1.58480371041549       1.84786825823985      -1.58501840021138
H         2.70577662957760      -0.65571406123070      -1.24934641507826
H         2.03056200280516      -2.26432480226938      -0.80929053091942
H         2.17865662842338      -1.65279420552915       1.61724977968228
H         3.74481621628628      -1.58386336292541       0.81143173235681
H         0.98571345505366       0.83424320987148      -2.11738801588931
H        -0.14936673660723      -1.63670766427392       1.14208184997728
H        -2.25743097706016       0.06406793838154       0.49839200798426
H         1.97286427302364       0.90362339969960       1.35297463074822
H         3.56587435004579       0.92435606582271       0.60972419071021
H         3.39373190239481       0.41705651711239       2.31826522549062
H        -1.26629876000034       2.73744143634321      -1.02628965021724
H        -1.30081305333882       1.97457662508008      -2.63424634610277
H        -2.66305061987782       1.67183025123052      -1.49618200702210
B         1.97583447847081       2.94650835607579      -1.39244826759951
F         2.71454812755942       4.11594915487972      -1.26137207051023
F         2.84000258308390       1.80288136026927      -1.57161711968525
F         1.09738896383684       2.98644694809819      -2.52983221094272
F         1.16409210557464       2.71288234837264      -0.22910844598678
