35
C11H17F3N2O2 optimized with DFTB in AMS.
N         0.11230504247396      -1.53029897546598       0.35145515625295
N        -1.94178326636476      -0.93607021286544       0.09826751146671
C         1.47973725906193      -1.59709872125417       0.84969879596629
C         2.39418346291181      -0.69179768938728       0.01819822999075
C         2.02439444897433       0.78842236704683       0.15497995488840
C        -0.86785014534686      -0.78199364194229       0.86732658104474
C        -0.35062644704442      -2.15310970595095      -0.77923907049868
C        -1.64676258915030      -1.77786536368524      -0.93528365250583
C        -3.21862886385078      -0.24849101483766       0.29074131598103
C         2.95471471517088       1.66853396976643      -0.67723599592073
C        -3.23070946040091       1.04722283348982      -0.51168939069568
H         1.47471902462131      -1.28928846387306       1.89886806671095
H         1.81200625764031      -2.63637378297875       0.78336548645884
H         2.33733987266320      -0.99367338543591      -1.03163108632040
H         3.42066548534584      -0.84997078045639       0.36081403348379
H         0.99106150278650       0.93768752867621      -0.17552968634989
H         2.08514903663349       1.08209228428233       1.20851064626792
H        -0.80270687892151      -0.18482995475502       1.76040773005566
H         0.27046261981537      -2.81129038977132      -1.36058691754344
H        -4.00841103307869      -0.91380341429069      -0.06594047998095
H        -3.33746238472789      -0.06002129939703       1.36123753921407
H        -2.38815357238682      -2.01906124616703      -1.68743080480572
H         2.88848225812136       1.40185327795190      -1.73238622005884
H         3.98828976769606       1.54799714673607      -0.35125963030824
H         2.67330666304328       2.71508247521305      -0.56408696288069
H        -2.38594925232485       1.68060556729177      -0.23948648506866
H        -4.15997751892107       1.57601999010272      -0.30728287782249
H        -3.19004161683966       0.81446225384820      -1.57478711808029
C        -4.80749554948843      -1.65100870260302      -3.16668503994589
O        -4.13269611179947      -1.19458240036278      -2.23044928432276
O        -5.78627726880683      -1.25451576714995      -3.75656609779007
C        -4.21804640812500      -3.09201153784403      -3.67580508256705
F        -4.82314183303175      -4.13321991782552      -3.06810547640856
F        -2.89154671955164      -3.21195945083469      -3.36800249512574
F        -4.31349530359780      -3.29739126417105      -4.99566998518147
