22
C6H8F6NP optimized with ForceField in AMS.
N        -0.71180565270571      -0.00656993720471      -0.02620888181410
C        -0.02952711486900       1.17392758647016      -0.13202096546297
C        -0.03895444029769      -1.19668532096690       0.01322507451507
C        -2.17588555077169       0.00388311911469      -0.00212873981070
C         1.36710507123935       1.18376715759052      -0.17645145665126
C         1.35734282517625      -1.22303819685995      -0.03197955045279
C         2.06169400540795      -0.02378984822246      -0.12614080732500
H        -0.56288825276665       2.11600921897544      -0.18063713662364
H        -0.57915153488594      -2.13420369080301       0.07303740243990
H        -2.57281219701003      -0.89351596004025       0.52063050091949
H        -2.55338276430374       0.89927046828207       0.53793421343824
H        -2.56263592425995       0.01669029615022      -1.04274126721815
H         1.90503773762738       2.12038503496785      -0.24384359488368
H         1.88710706243045      -2.16608146066531       0.00267493674334
H         3.14348804986752      -0.03020329798586      -0.16028390300498
P         2.88593704769564       1.60729734830332       3.63705625595558
F         2.43014058664215       0.31288847757928       4.66932260274049
F         2.22501134134086       2.92789810592101       4.51400248429144
F         4.24959870845278       1.82857642058770       4.65725815626706
F         3.42923942869978       2.67338024465297       2.40498544050685
F         3.69542197569579       0.47329558668898       2.63381169956628
F         1.33245652159449       1.41409542366426       2.93132210296354
