38
C12H23ClN2 optimized with ForceField in AMS.
N         0.21133149501211       2.31834563338006      -0.16863084507746
N        -1.86020329609241       1.50806271307988      -0.12269658433953
C         1.58835567259321       2.54165925991196      -0.60679955406246
C         2.54308315061898       1.51590576640735       0.02373275348249
C        -3.06266566672498       0.77479777481059      -0.51605927996114
C         2.12058723340214       0.07362622971087      -0.29360371740447
C        -3.10659610700541      -0.61134195650347       0.14326402084804
C        -0.77136744496262       1.73510064786970      -0.88312748832221
C        -0.27628776150196       2.47612566036489       1.07873134086154
C        -1.56182601830023       1.97530660791164       1.10671797934426
C         3.13150007429870      -0.94372710661933       0.24164498832424
C        -1.95149486127510      -1.50594162089111      -0.32796781991522
C         2.64857475582059      -2.37136738154316      -0.00602792680382
C        -2.02456547075391      -2.89149424862759       0.30577777773853
H         1.90443489239011       3.56811968257965      -0.32116914244742
H         1.65120988409784       2.46767623921206      -1.71480280443918
H         3.56674556971197       1.69869601198259      -0.36915899579443
H         2.56660601259531       1.66299152062536       1.12552526752559
H        -3.95986159507497       1.35644464917028      -0.21428343209203
H        -3.09546371091630       0.65946953330849      -1.62219865738195
H         2.01641400550562      -0.05167338152724      -1.39418955466654
H         1.13817832953046      -0.12584730971786       0.18138996416247
H        -4.07325883593015      -1.09467261682177      -0.11752864908450
H        -3.06841963919292      -0.49762060454987       1.24884808029250
H        -0.66815006852647       1.41191814692952      -1.91156853542301
H         0.27813463786650       2.87658726615268       1.91720803085575
H        -2.21086452838782       1.91357170389906       1.97020156882173
H         3.26994286715388      -0.79635300989205       1.33501576140325
H         4.11166891018704      -0.79858436512348      -0.26205314816334
H        -1.98273337487196      -1.61155279333735      -1.43433526428205
H        -0.98273030666712      -1.04653666505640      -0.04732953748841
H         2.51303825041452      -2.55080820118018      -1.09410013138700
H         1.68317037631669      -2.54908694600784       0.51506977509816
H         3.39794318042583      -3.09221802496346       0.38217684255811
H        -1.98106044700602      -2.81150904876003       1.41285639176185
H        -1.16291918775760      -3.50164946652100      -0.03879372515099
H        -2.96477283859880      -3.40232680274157       0.00905695639215
Cl        4.74128730170525      -2.90557987092185       3.31712419791651
