64
C18H26F18NP optimized with DFTB in AMS.
N         1.00409413185734      -1.25738228117737       0.28915234737552
C         1.37952823483072      -2.31678961292482      -0.70642045884248
C         0.37949672181399      -2.02100624002151       1.42638329132103
C         2.22035622138291      -0.52040004483971       0.78139872274536
C         0.26381884972877      -3.34499378706069      -0.62981880371621
C        -0.15272299684724      -3.33419293297148       0.84446738231690
C        -0.00816602167932      -0.34076951169243      -0.33686165331164
C         2.98986370232902       0.22427836236389      -0.30531408745683
C        -0.36488372435555       0.87909541950806       0.50064025022354
C         4.06641747689227       1.08835139987376       0.36378405145522
C         4.90285263669484       1.83794248834780      -0.67589195783146
C         5.96136993763222       2.71327019940477       0.00261179532633
C         6.82818891838038       3.43413361352311      -1.02748545818552
H         2.31908996225962      -2.75735284139149      -0.37875707526010
H         1.50629413195177      -1.87024023482237      -1.69174022805256
H        -0.40154458928850      -1.41227980342868       1.88131110171337
H         1.15432417709292      -2.20862274345709       2.16875683688036
H         2.87476646463145      -1.26365067888208       1.23827007664680
H         1.88175603655653       0.16580551299253       1.56089288562463
H         0.63407091861974      -4.32430441540493      -0.93562886201366
H        -0.57323454647299      -3.07376843505221      -1.27784375366141
H        -1.23663364960394      -3.40150448847410       0.95098525920312
H         0.29835718510871      -4.17565335782637       1.37453060113762
H         0.39319027715675      -0.01953347088478      -1.30040711750546
H        -0.90266097885548      -0.94072685992047      -0.51952442084877
H         3.46533948218247      -0.49312066957304      -0.97831827438795
H         2.32539507418931       0.86269013627846      -0.89452037705908
H        -1.20835511574828       1.37497981179369       0.02061849265408
H        -0.65961600299761       0.60777991861816       1.51290323340294
H         0.46114049148029       1.58584808508367       0.55012810386822
H         4.71781246996846       0.44663986252483       0.96331879569935
H         3.58579706330506       1.80554945519524       1.03919310838924
H         4.24894654822126       2.46349118198058      -1.29495198239105
H         5.39429770754804       1.11430933024079      -1.33314293716395
H         5.46799090540596       3.44948627194753       0.64683146220143
H         6.59737119730259       2.08644772293450       0.63476582593297
H         6.21624913002798       4.07492187510341      -1.66484260226813
H         7.57059019737497       4.05293573391912      -0.52311659078909
H         7.34811668986584       2.71216606523266      -1.65829032413501
P         5.48645398196783      -3.20351153428876       0.91500189329889
F         4.28573021472241      -2.78806835155499      -0.22364646259151
F         4.98742471537624      -1.90304042902393       1.88614359779981
F         5.90572826245237      -4.50742327820092      -0.04249052231916
C         3.99952399702324      -4.23526313630420       1.71964587676689
C         6.66071495318411      -1.95891885407593      -0.12153171061339
C         6.95269728017192      -3.69428766083799       2.17041528933937
C         3.41078269923747      -5.46024650541597       0.97279901428441
C         7.59402973509110      -0.91538093171486       0.57112903784765
C         7.00051192784829      -4.97162979926430       3.05955966651495
F         2.92329238741957      -3.39704327554078       1.83493138250634
F         4.28348282258603      -4.62605313599178       2.96958152701681
F         5.85458340116919      -1.17745709587392      -0.88112687316240
F         7.42866915108572      -2.65265665758549      -0.97228582340371
F         7.20083354586000      -2.65119028436664       2.98354488966830
F         8.01019123951636      -3.81054791085655       1.33905649367237
F         2.33455123575281      -5.91058196672193       1.63636072230501
F         4.26059914178729      -6.46117584115552       0.84311271529510
F         2.98123863681192      -5.10257761943035      -0.24491961211803
F         7.95933626800259      -0.00387250097422      -0.33984067158100
F         6.95775542379381      -0.25856193363733       1.54357954028791
F         8.70076665625684      -1.43673759567264       1.07352773490244
F         6.43176210386360      -4.76339658385108       4.24231711176310
F         8.26387654575280      -5.33128866696770       3.27754478088910
F         6.38631210122310      -5.99354390645327       2.46335731759309
