41
C11H22F3NO3S optimized with ADF in AMS.
N        -0.34472422838508       0.22677512410649       0.11108082971853
C        -1.08138375793558       0.37375545169617      -1.20336531959077
C        -1.11265263674808      -0.73803794489813       1.01414805047110
C         1.01433212846568      -0.36577042164978      -0.21363929255341
C        -2.52305567261684       0.82044530553132      -1.03209579212810
C        -2.57327661631588      -0.35221097583023       1.18386048961504
C        -0.19776262245175       1.55849516110710       0.83514000857886
C        -3.28852581262185      -0.16791761101837      -0.15159009142594
C         1.95772241281790      -0.55798207397998       0.95953944069710
C         0.52735111479884       2.62873963526106       0.04725045762973
C         3.25253276338108      -1.20472322919042       0.46781953881842
H        -1.04631440418703      -0.62276432175887      -1.67405508693181
H        -0.49658416621078       1.06380118634833      -1.82767467345662
H        -0.59242258997908      -0.72891403385083       1.98445178298029
H        -1.01192069205107      -1.72568192616710       0.53324471181170
H         1.46571825382625       0.29180350683757      -0.97299361472183
H         0.80306692290628      -1.33283062529294      -0.69827156207835
H        -2.96852192670300       0.88620553585498      -2.03900909192809
H        -2.56495548082315       1.83662975719954      -0.60415178269908
H        -2.64221560042529       0.54431723241919       1.82060290242338
H        -3.03822724420786      -1.15656906422657       1.77649775087798
H        -1.20878219923748       1.87969360926387       1.10774283711911
H         0.29829252248064       1.31698076960374       1.78645224939736
H        -4.31983587894405       0.18246726733140       0.01195700486082
H        -3.35631704825246      -1.13681960459349      -0.68192130042679
H         2.18330652099980       0.40438645688514       1.44297586358693
H         1.49399043422419      -1.18156967310723       1.73727973613331
H         0.59228582290282       3.51666818911894       0.69367311710957
H         1.55707075819489       2.34673020716861      -0.21663681501088
H        -0.00509699973060       2.93221388657252      -0.86653678479881
H         3.94380041268017      -1.35284009392173       1.30889456559459
H         3.06303581641635      -2.18883990339399       0.00962085192200
H         3.76074369256971      -0.57445759215496      -0.27992018548767
S        -0.62384231213589       0.79428558804395       4.49213640213867
O        -0.15801880525972       1.49785101021034       5.68445796060256
O         0.44051182567031       0.18592551508835       3.64481477312596
O        -1.69193410072159       1.44777005751274       3.70640276365250
C        -1.48621613369967      -0.73269840685803       5.18039034253978
F        -2.57773948694418      -0.40003281226365       5.91421914591611
F        -0.65596566514863      -1.46494358136903       5.96627938834025
F        -1.91594360869831      -1.56029870483602       4.16695998567646
