61
C17H24F18NP optimized with ADF in AMS.
N         1.24527004360015       0.86240308338695       0.25581702365970
C        -0.06186850493141       0.12743734844694       0.46258344282513
C         1.25944092380226       1.83134519336474       1.42548368368949
C         2.42419263712138      -0.09362787487163       0.38849401919693
C        -0.17541116451666      -0.07720497591917       1.97495292846732
C         0.71835003366179       1.02428200272178       2.60366298222687
C         1.24734676211453       1.58082607848963      -1.07488829328733
C         2.60911738659048      -1.05784704299868      -0.76799160591324
C         2.48538537406903       2.41428834045434      -1.34986165672360
C         3.66665260158820      -2.10473216782981      -0.39846517415464
C         2.37063005771067       3.07652361455958      -2.72183973819220
C         4.01636301257820      -3.00698399661278      -1.57735174396290
H        -0.85168791220534       0.79455140347807       0.08585635166458
H        -0.06055543689678      -0.79349305314281      -0.13278419987207
H         2.27256277401272       2.22019338529786       1.56568986854870
H         0.58197603312405       2.65335838445845       1.14723622777089
H         2.26383176652207      -0.64021296005572       1.32893575466788
H         3.31405289482934       0.53216974651615       0.51896071723984
H        -1.22639926206631       0.00922849073600       2.28499191741349
H         0.16723145068915      -1.07991854397549       2.26836406588864
H         1.54198694970067       0.58662125687492       3.18406272055640
H         0.15930534602265       1.68152415839318       3.28405106949526
H         1.10793562068128       0.80620932399953      -1.84478069174305
H         0.34539853762821       2.21444625534682      -1.06889778839660
H         1.66809661412350      -1.57400667038328      -1.03126286891554
H         2.94877190337711      -0.51357317806180      -1.66485241048034
H         2.61283466657469       3.18470575267985      -0.57438237276682
H         3.39314396475406       1.79596922539557      -1.31535904536940
H         4.57448883266561      -1.59085324277067      -0.04675457999690
H         3.29623569359723      -2.71091158700717       0.44738323559245
H         2.29527065764040       2.32704110544640      -3.52567041243530
H         1.48865354118702       3.73360847255528      -2.78316691701350
H         3.26290756558981       3.68884921329825      -2.91413721053443
H         4.76370318796985      -3.75923971844064      -1.28473471024913
H         3.12866992962522      -3.53845542853460      -1.95673775800789
H         4.44249203110357      -2.41736654231102      -2.40394442031963
P         6.02336534396404       2.54089814319618       1.40952676663198
F         6.08065501680068       3.66912129776430       0.18840579964137
F         7.61019968441728       2.71078507899987       1.82819754133959
F         4.36823658544146       2.31446994134795       1.05011147671721
C         5.60721020205882       4.10189850369771       2.54251433479839
C         6.61228544464966       1.22650964498911      -0.04847207020414
C         5.76207522671561       1.03626811516960       2.75022471809153
C         4.24824181475419       4.85382239043998       2.36276708715474
C         7.57230104153798      -0.00596242817497       0.13639854914840
C         4.94405926579690       1.07473840702254       4.08361370110238
F         6.56318881640071       5.06273039545471       2.30899309189754
F         5.68041560106026       3.80500944721577       3.88765043752448
F         7.30173738384764       1.97296466073728      -0.97497298136650
F         5.50178446134151       0.70559544260030      -0.71908655603595
F         6.97862310729621       0.51236959104809       3.10887231261497
F         5.09048746621780       0.04628853789861       2.02948796743360
F         4.26739352264427       5.99912595402230       3.09590623474444
F         3.18940636639425       4.11831240368289       2.80872325021405
F         4.00003423653425       5.19290482285782       1.07624213852041
F         7.94037674170274      -0.44507209842671      -1.10620338617062
F         8.69359711346427       0.33224281647877       0.80278977196117
F         6.99842370930421      -1.06440196726650       0.75715707483870
F         5.63218655007524       1.60514198149282       5.10963315266310
F         4.61899970078896      -0.20576325179479       4.44511447208744
F         3.76983130675264       1.74533616416133       3.93446568018268
