53
C17H29F3N2O2 optimized with ForceField in AMS.
N         3.05457894455586       0.91234635482491      -0.01502461454670
N         2.91724976763563      -1.29923519805852       0.18373533203610
C         1.46313917378565       2.78427980964053      -0.25926651420665
C         2.83112106177026       2.32805987899299       0.27095226069017
C         1.00780751057442      -2.62028829020575       1.03315645071858
C         2.50966687443445      -2.60343541923414       0.70485099205671
C         0.30683372178267       2.08388904219216       0.47027589965465
C         0.14515903376852      -2.29255740461805      -0.19618702442659
C        -1.05494702139294       2.53313258665319      -0.06890469421680
C        -1.34655716558135      -2.27964467626527       0.15457369504276
C         2.83906605682320      -0.11726700042150       0.82677922604127
C         3.28380471484533       0.36359274846624      -1.22493703088035
C         3.20776795714698      -1.00693054575957      -1.10019386426396
C        -2.19184584899832       1.83627506098066       0.68835786704727
C        -2.18170362751494      -1.78290430526825      -1.03248900776838
C        -3.54941596014283       2.14623068457233       0.06595723092786
C        -3.66319673375638      -1.70896125647962      -0.67490646805804
H         1.37569397269420       3.88256181983388      -0.11205657008234
H         1.40146008927744       2.57797353509819      -1.35027248978039
H         0.80245615882509      -1.88419107733668       1.84103052995271
H         0.73741206166191      -3.62921185408304       1.41330194616971
H         3.63423869835988       2.92835158079295      -0.20820532166997
H         2.88659250888865       2.50948491411607       1.36702272135698
H         3.09330383218686      -2.82936178123051       1.62330695260674
H         2.73128792767779      -3.39842070429769      -0.04052371506099
H         0.36909240432364       2.30798981704230       1.55780805796272
H         0.39027993314368       0.98571346047265       0.33145537565843
H         0.33231201841469      -3.04558923589478      -0.99279310958687
H         0.42457774603548      -1.29200181072034      -0.58876843411161
H        -1.15814643454207       3.63450050521048       0.04558384173758
H        -1.11923664575494       2.28016792381883      -1.15040466999056
H        -1.51501745302993      -1.61061992620129       1.02652764189966
H        -1.66869976399319      -3.30688305137785       0.43299634708930
H         2.53422753078958      -0.00413062409032       1.86044492850915
H         3.42868871131630       0.91756654033347      -2.14302585378212
H         3.27559211993311      -1.72793977021107      -1.90414204341922
H        -2.03639154704544       0.73799797143599       0.67120324910305
H        -2.19235476735334       2.16889131681894       1.74911476421722
H        -2.05028759975503      -2.47106547129143      -1.89566787332140
H        -1.83801639732426      -0.77015586410113      -1.33815911780838
H        -3.74965614623539       3.23796618429171       0.10114614367836
H        -3.57843424879169       1.79844726141983      -0.98886561348260
H        -4.34631824872799       1.61895349873320       0.63176813411377
H        -4.23621395904672      -1.31723046846874      -1.54166765790871
H        -3.82051543588969      -1.02811492822828       0.18829439416705
H        -4.04796894162692      -2.71859690821551      -0.41870937646310
C         7.43484262593367      -0.23842401036964      -1.20211009958669
O         6.43173185214907      -0.84810014550442      -0.86794534577821
O         8.50843160648045      -0.81759661184007      -1.23839098213729
C         7.35775491520884       1.21442499418669      -1.56646580136970
F         8.17314630115273       1.94548811763384      -0.72277648688091
F         6.06009823742305       1.67901985889968      -1.44999200368064
F         7.78157079800429       1.38599202231174      -2.87132706766866
