40
C10H19F2N3O4S2 optimized with ForceField in AMS.
N         0.37390614809976      -1.55896965078093       0.32530530373313
N        -1.75695698752566      -0.92559554184975       0.27887427573130
C         1.76532986855184      -1.69840543849201       0.75117691577933
C         2.68453579691059      -0.78529936131433      -0.07038787080086
C        -3.01404739364566      -0.27747419947191       0.64888053454135
C        -0.61872809683480      -0.94643595348941       0.99932650582172
C         2.39079902994022       0.69987067440272       0.18571926764453
C        -0.15692503747359      -1.94980744152398      -0.85115548562968
C        -1.47958706030673      -1.55835641488018      -0.87933476596500
C        -3.29799387383069       0.93229199602804      -0.25091243628289
C         3.29893836627806       1.59365197873003      -0.65243340180346
C        -2.21519058684435       2.00443867842190      -0.13156906244706
H         1.86300542457194      -1.44960309216500       1.83101158452839
H         2.08193903902568      -2.75575745294785       0.62124409228552
H         2.56420876478550      -1.01420546584411      -1.15183314934809
H         3.73846886599128      -1.00197750393399       0.20991333539019
H        -2.97619619919787       0.05363203832521       1.71024625072726
H        -3.84421599248738      -1.01011770415494       0.55489338055311
H        -0.50301866554154      -0.48666415673576       1.97314063560437
H         1.33507532420148       0.93058740302701      -0.07315641047982
H         2.54806209513608       0.93192231723978       1.26167859796037
H         0.38229168906417      -2.46057012815467      -1.63835091504570
H        -2.17837590398059      -1.70225424421377      -1.69313102730643
H        -3.37775665649156       0.60518455322504      -1.31000351088056
H        -4.27381606467898       1.37528970717413       0.04307549138353
H         3.11240968473775       1.42383446817175      -1.73415329172727
H         4.36518768944188       1.38089864524257      -0.42771270580651
H         3.09006906197308       2.65907827233278      -0.41881416715104
H        -1.24203205145530       1.61839782840161      -0.50225720599318
H        -2.10340840800038       2.32634142420018       0.92558058981295
H        -2.49692379884376       2.88625344850598      -0.74441962005186
N         5.76577996722862       2.96111240800287       1.39862722437113
S         6.30925075871080       4.36814655676150       0.76658427436654
S         6.49038172098616       2.27429192831482       2.69395457909415
F         7.82710457585888       4.13034965483384       0.10146738687410
F         6.15751039599116       3.18255833439891       4.06015040124675
O         5.36215119436919       4.83907071415626      -0.30034927920660
O         6.41019206967809       5.40704731486224       1.84801554093477
O         7.97875512202321       2.23337785976140       2.48778838352759
O         5.96633167728346       0.87873257153204       2.88109245031395
