24
C6H12F3NO2 optimized with DFTB in AMS.
N         0.17057460768724       0.28507193451485       0.57520276113150
C        -0.81538436513004      -0.75131249237898       0.98717381446698
C         1.35236118523104       0.22265174892455       1.47946434837349
C        -0.46289461933360       1.62904739132780       0.67357848110372
C         0.60342602237737       0.04116883379787      -0.82358697908279
H        -0.34973877547772      -1.73215850786544       0.91142503283413
H        -1.10876525282560      -0.55045071670596       2.01771693828226
H        -1.68128928855558      -0.69545640427911       0.33013951799457
H         2.04776973821693       1.01351825670312       1.20739125034051
H         1.00130627748352       0.37262909875380       2.50046045241786
H         1.82503089956354      -0.75224093749798       1.37652407447791
H         0.28161757420007       2.39016120591849       0.45085907118428
H        -1.28667184729624       1.68438196703598      -0.03545227464157
H        -0.82923880171830       1.75452721802563       1.69240958312905
H         1.32112038345792       0.80821262510696      -1.10883161038104
H         1.06637650262099      -0.94201812771073      -0.88712049169042
H        -0.26543845683355       0.08477625840688      -1.47794970039345
C        -0.54547510573323       1.62136120885774       4.45681803697310
O        -0.73000169034996       0.79215816741027       3.54984466295376
O        -0.75321733613478       1.62655826445604       5.64416469107239
C         0.13915075743612       2.98263552251234       3.84183230809278
F        -0.71861374548813       3.62583377744665       3.00891421334284
F         1.20689204830132       2.65281272082228       3.04876603428263
F         0.58091767090067       3.87977891181696       4.72059987173551
