55
C15H20F18NP optimized with ForceField in AMS.
N         0.24405233255711      -0.07757846372477      -0.18771374491692
C        -0.64123487613793       0.73633532170546      -1.08237032403302
C        -0.49550686754541      -1.31547266706224       0.22831808597066
C        -2.00712302673910       1.08334680843410      -0.46758995904574
C        -1.87475763347304      -1.04058444308635       0.86069911580176
C         0.66540601730733       0.69060745617811       1.03572830660573
C         1.43034565532489      -0.48305955044364      -1.01659910954660
C        -2.74478978398698      -0.18647734841642      -0.05608233217821
C         1.51892721340505       1.94541785389147       0.77486464736035
C         2.54120233739957      -1.23731080237005      -0.26663856263978
H        -0.84552272366850       0.17851816567410      -2.02672692048889
H        -0.14404064277945       1.67587629420980      -1.40231294579958
H         0.08770580315619      -1.89997060055588       0.97197204724615
H        -0.65910484658495      -1.98568148415100      -0.64719082790266
H        -2.61640541413104       1.62035398957919      -1.22642299111965
H        -1.89639954788169       1.76799528678617       0.39828270550882
H        -1.76730600904741      -0.55090948037687       1.85088042520720
H        -2.38819839704214      -2.01037360151224       1.03856022205520
H        -0.21065155626028       1.02395910756382       1.62467671349339
H         1.23134967753795       0.03240733690306       1.73097875915690
H         1.10635192767622      -1.13545830677445      -1.86022913125343
H         1.89453578451836       0.40285568949342      -1.50394896581097
H        -3.68558158679477       0.08420324958562       0.46975421348999
H        -3.01351775726572      -0.77162229256839      -0.96337706486649
H         1.79115123240300       2.39870577982009       1.75139860690468
H         2.46643276730249       1.70748395819755       0.25314491885127
H         0.95674508166636       2.71187768329774       0.20632474659856
H         3.30798162030415      -1.56639916253870      -0.99917942253683
H         3.05087266223268      -0.59223565587407       0.47630999740065
H         2.15153306822762      -2.13912662639037       0.23662525354831
P         4.84145852428580      -4.91388765520371       1.24094120432533
F         5.66697895893246      -5.86642194591131       0.06877125453133
F         4.56092993433245      -3.31826298138613       0.66102161476714
F         4.78234678993596      -6.48828562157787       1.93293833279179
C         3.42773347624207      -5.21396264437033      -0.05258313996393
C         6.70802467844867      -4.41055322310939       1.35362390906928
C         4.17968696350598      -4.53477548676198       3.01793239075797
C         3.05935038956962      -6.68321327952520      -0.39046054869035
C         7.06849345867731      -3.23598078160166       2.28851591626845
C         2.70809450225974      -4.89248630179714       3.30863972081435
F         3.77894094618855      -4.61389614875198      -1.25576780728655
F         2.27238251582428      -4.59778021827982       0.37781122366358
F         7.16801533418841      -4.04045551631650       0.09285402931253
F         7.44312868584003      -5.50862214444086       1.77805065827618
F         4.29325670353655      -3.17604508739627       3.25389854943434
F         4.96734392644177      -5.18166301452901       3.96074966902009
F         1.91969756264527      -6.68285380574054      -1.17603770990044
F         2.79099520136055      -7.43051848568495       0.73677000309475
F         4.06189223298023      -7.30409155591347      -1.11380185661747
F         8.40616679365546      -2.92595073919028       2.11293727570595
F         6.33317530527188      -2.10377057560832       1.99077813491397
F         6.89561709758315      -3.57167798296726       3.61631752995057
F         1.85587756942426      -3.97176343030861       2.72697571069224
F         2.49584137507909      -4.84515541760882       4.67558757522689
F         2.38832874570988      -6.16072523389283       2.87653460478117
