31
C7H13F2N3O4S2 optimized with ADF in AMS.
N        -0.64292517079354       0.29024113023511      -0.77414759788222
N        -2.22620749548624       0.70587486785967       0.64776753726612
C        -1.97271392125316       0.35637245819407      -0.62105724149323
C         0.06478609860741      -0.14894123898537      -1.99039553724814
C        -3.56368583775126       0.76765237702387       1.26509669940865
C        -0.03521861079807       0.59140262722284       0.42818019207489
C        -1.03106774477429       0.85039179769117       1.32296864657804
C         0.68778335255533      -1.52045751843056      -1.78849613425174
C        -3.90554462116899      -0.54977196955224       1.93948621926174
H        -2.72568800412680       0.11014809137768      -1.36572026580142
H        -0.68326949063642      -0.17474333864187      -2.79276904575783
H         0.81563631122706       0.62249624746498      -2.22348761539910
H        -3.54545658573635       1.61171875732396       1.97202696921962
H        -4.27605768522480       0.99498788986991       0.46129688546576
H         1.04167791861690       0.59981418992436       0.53797131479011
H        -0.99515555050541       1.12703523480501       2.36932501041095
H         1.45895546596539      -1.50469026813747      -1.00385441234186
H         1.15570140755887      -1.84956775368020      -2.72729313217825
H        -0.08339031831517      -2.25129302435939      -1.51458179234873
H        -3.90038357596800      -1.36235533804335       1.20061755210204
H        -4.91128411571662      -0.48368935549319       2.37915959979666
H        -3.18752737593098      -0.78815742545462       2.73819158344879
N        -4.49269941420095      -2.97216834473746      -1.89355577961434
S        -2.91405698357556      -2.84867903806471      -2.05550679920724
S        -5.39746343571869      -1.64148224221686      -1.90874997848602
F        -2.41903705568546      -2.46708487035828      -0.47674249812454
F        -5.41967625654412      -1.22779051417440      -3.50175766658301
O        -2.32881445169823      -4.15125700302694      -2.27075465617416
O        -2.43229539134368      -1.69211394942035      -2.80907938347313
O        -4.79445927234709      -0.46746091010583      -1.27335258558596
O        -6.75779906933106      -2.00375644230954      -1.59267561437247
