42
C10H22F2N2O4S2 optimized with ForceField in AMS.
N        -0.86631468322038      -0.14909786421917       0.05205798548546
C        -1.99765358485795      -0.27778766697391      -0.91689539183336
C        -1.21440690472861       1.03412659044666       0.89826097761573
C         0.40461756604235       0.10723954995997      -0.70128819578782
C        -2.83417940596720       0.98417193032860      -0.83680891457586
C        -2.64027886023600       1.44409878231327       0.58031815355570
C        -0.78293396918295      -1.36937415387148       0.91770848963435
C         1.66787689035013       0.21513147170989       0.18625236672361
C        -0.41859880293058      -2.66369059061846       0.16962807885248
C         2.88184478454790       0.64361539202929      -0.64682398378647
C         4.14007758765725       0.73119549356996       0.21200119876284
H        -2.67265873388059      -1.12808020845688      -0.66550223172145
H        -1.66361773568207      -0.44282563153825      -1.96670723862936
H        -1.11512415824663       0.83968414573190       1.99064746861485
H        -0.56835714809148       1.91496631810723       0.67887767559367
H         0.57888637518606      -0.69137271951430      -1.45598851943612
H         0.30353071913326       1.04954651910195      -1.28900540094941
H        -2.43499764799593       1.74827691345119      -1.54014367720769
H        -3.90532870374908       0.78952786472204      -1.06194385392381
H        -3.34697566814400       0.90700126301997       1.25129943196399
H        -2.79031335703471       2.54122295790149       0.67887846697228
H        -0.04448642913610      -1.22425426071834       1.73611359362718
H        -1.75733007832036      -1.53423105852054       1.43111016238335
H         1.51108853601921       0.95170922358337       1.00197122133405
H         1.89554027158636      -0.76973022730094       0.64475272858909
H        -0.44672372136975      -3.51151487108181       0.88531893434658
H         0.60866095236642      -2.62063118632588      -0.24359582611325
H        -1.13600043638611      -2.87774946947242      -0.64849417348198
H         3.05443469845860      -0.09323087232634      -1.46166153759259
H         2.69057838931630       1.63799144436817      -1.10564098276042
H         4.37080951633139      -0.25815877541732       0.66170171436395
H         4.00355242411108       1.47981764245572       1.02133942247420
H         4.99897511453740       1.04282981334462      -0.41907133280135
N        -2.96506583311798      -6.00633895241163       2.71706190174491
S        -2.48350806746795      -7.56348417072047       2.57015733119893
S        -3.35822835271537      -5.11040584331852       1.40521542310723
F        -0.90310580855354      -7.60188673333365       2.01951628590235
F        -4.88483798920189      -5.54607773786622       0.87587715879763
O        -2.56123229490063      -8.24184837984854       3.90780906715894
O        -3.36162820848261      -8.28298346061017       1.58518315280821
O        -2.37159761300918      -5.35613863375073       0.29854785979327
O        -3.35900382173409      -3.65500191532934       1.77400259459609
