43
C11H17F6N3O4S2 optimized with ADF in AMS.
N         0.77250519826165      -0.87066443955758      -0.89485573758151
N        -1.22451862935361      -0.05083404423823      -0.69050927431057
C         1.90553008336177      -1.62237426905184      -1.45630806201413
C        -2.67846107813649       0.11261735939945      -0.84059662743706
C        -0.47323609931515      -0.92075071830645      -1.37915785872387
C         2.70476306510548      -0.76425844620204      -2.43512045933969
C        -3.42964594321357      -0.49634879529405       0.34035810792700
C         0.82220270041507       0.05511314805675       0.12651697768739
C        -0.43694685565273       0.56511175260213       0.26378669729392
C         1.88212012242235      -0.31457055202297      -3.63866916220822
C        -3.16844891539432      -1.98934049589716       0.50256404203190
H         1.46903717578878      -2.50056744253641      -1.95633260708359
H         2.51421943463046      -1.96639074764470      -0.60706650525848
H        -2.95162026732693      -0.38577855972001      -1.78159401470028
H        -2.87877846818633       1.19001287311687      -0.94857633933097
H        -0.78492497220811      -1.59123516283832      -2.18107001240666
H         3.13085738641251       0.10598641326532      -1.90285929106744
H         3.55881397800876      -1.37911395575127      -2.76748537315987
H        -3.16072006118542       0.05058184612169       1.26224691352877
H        -4.50260793067681      -0.30288356701652       0.16744089725116
H         1.73788761097919       0.26812319917087       0.66427908860705
H        -0.83702412641136       1.29801814339548       0.95316176034691
H         1.06914292440163       0.36665572814844      -3.33965539586961
H         1.43441108481352      -1.17459369947628      -4.16045879718862
H         2.51288529783245       0.22886568083452      -4.35787478811474
H        -2.10568036692946      -2.20310593712616       0.69229208804387
H        -3.45405946171457      -2.55243680297561      -0.39919323709466
H        -3.74446427900730      -2.39183911407643       1.34865181800256
N        -0.53047041546516      -3.42610079190923      -3.11191182631285
S        -0.92244687094597      -3.48653735292846      -4.68336935043891
S        -1.21605110024743      -4.35846954886727      -1.97389631220376
C        -2.45656405410601      -2.37540339398710      -4.84831302215138
C        -0.60194204829292      -6.14007984674566      -2.24392337597501
O         0.09415084656611      -2.71385254964954      -5.38643929382310
O        -1.35816632856492      -4.78680565452196      -5.16638631120727
O        -2.67121305010860      -4.45023425321087      -2.03115003667776
O        -0.56312300274246      -3.94875392595232      -0.72764964603099
F        -2.58398947499931      -1.97961744850752      -6.13295535920991
F        -2.31773125777953      -1.24365697027670      -4.07739256453222
F        -3.58886277847106      -2.99562334997299      -4.47016449987623
F        -0.60968111916425      -6.76355747217056      -1.03989807676279
F         0.66304289075258      -6.14113101880896      -2.72444980848439
F        -1.39795056925253      -6.82062501607036      -3.08357886324401
