32
C10H15F3N2O2 optimized with ADF in AMS.
N        -0.00330414928119      -0.62914515706742       0.60155835799754
N         2.03192859344363      -0.88173645946496      -0.09732679106569
C        -1.12627329044341      -0.35439544043157       1.51442046450371
C        -1.95916487899223       0.83100850956494       1.03646272335248
C         1.27816747423284      -0.66602887216023       0.98943115040182
C        -0.07105980845802      -0.82036772646079      -0.76461586122314
C         3.50370139379671      -0.93538338900487      -0.09350291161140
C         1.21209467399379      -0.97763639667516      -1.20444204880427
C        -1.13754768758314       2.11043512194750       0.91533065074870
C         4.11244027619340       0.29850579437176      -0.73709726837451
H        -0.66062031510270      -0.12346769416898       2.48460661819460
H        -1.72451870038997      -1.27602631301468       1.59430679941531
H        -2.45891054623978       0.58385860618858       0.08226700667289
H        -2.76624619771973       0.96230477690141       1.77752003907166
H         1.63570002692778      -0.41023141262142       1.99231818579331
H        -1.01050906684410      -0.82482986409149      -1.30163573145050
H         3.79818902197688      -0.99154868766008       0.96282497611226
H         3.79120703551648      -1.86691048672456      -0.60585080608943
H         1.60501514014775      -1.14979489840348      -2.19865279416483
H        -0.35682176228972       2.01251873444671       0.14463500336549
H        -0.63044913000338       2.33560307702781       1.86482235851800
H        -1.77567743600891       2.96156022123324       0.63625031058995
H         3.78947962021581       0.41752800249670      -1.78210963059262
H         5.20815789787076       0.20169794788760      -0.72578125561523
H         3.83740655176317       1.18406212710079      -0.14616219487466
C         2.24136323343047       1.67847403502705       2.77140829791133
O         1.15892751743413       1.20062533938365       3.20317195969664
O         3.20187050962435       1.10310973347223       2.20382229714362
C         2.37611084484895       3.22556372319836       2.95604041823089
F         3.52985225918898       3.73442861302998       2.43899106066736
F         2.33531323170453       3.58047613843168       4.27598848508013
F         1.34264027114588       3.88744927293968       2.33213387789858
