33
C9H17BF4N2 optimized with DFTB in AMS.
N         1.76383226578506      -0.41064520493983      -0.46020056000321
N        -0.26606468589764       0.28027509292330      -0.23534578576620
C         2.91546702878929      -1.30153239955568      -0.30837978435851
C        -1.69100053224645       0.31609646850096       0.07391391290621
C         0.51791539623585      -0.79571790972333      -0.19186936012520
C         4.15445803869567      -0.79779797585555      -1.03683974434111
C        -1.92023541584056       0.57544582569239       1.56962127377454
C         1.78735331012227       0.94759764023793      -0.60903206845848
C         0.50804200136207       1.38348341479080      -0.47383270636511
C         3.95331110428638      -0.71191363308500      -2.54894822211371
C        -1.66103200160534      -0.66302492113078       2.42101626975664
H         2.61852753162093      -2.28862415759572      -0.67564011231840
H         3.10898718576434      -1.36386020309463       0.76762698020025
H        -2.12991241875379      -0.63799821199291      -0.23299834895267
H        -2.13330902581902       1.11812681688427      -0.52337357483197
H         0.20276696133179      -1.80285886283292       0.01442296842464
H         4.44388277357055       0.17583577697623      -0.63357875843056
H         4.96428892209427      -1.49968276535861      -0.81773504412573
H        -1.26083511100170       1.38542471359392       1.89316931173509
H        -2.95795489511672       0.90115965839387       1.69040342624402
H         2.69709282545278       1.50008107141782      -0.75288037233398
H         0.09443754794856       2.37532787996001      -0.51058683828593
H         3.14451314949037      -0.02261570668148      -2.79478129558134
H         3.70727688719321      -1.69323113820256      -2.95753744760985
H         4.86720241753880      -0.35671255109388      -3.02435952867131
H        -0.61578686796582      -0.96037790224997       2.35160578982500
H        -2.29141060798630      -1.49436890181031       2.09951356840744
H        -1.88309747738216      -0.43736397517971       3.46343623899573
B         1.96249007512585       0.40828814602196       2.52665048261002
F         0.91066034863696       1.29548448558092       2.22967234792067
F         2.31796849198743       0.46337773229001       3.84573270296798
F         3.05710524971882       0.70409596515656       1.68265919739357
F         1.51079356816426      -0.91014130263805       2.18626959551143
