38
C8H20F2N2O4S2 optimized with ADF in AMS.
N         0.03961172311122      -0.09944610258501      -0.32916631250860
C        -0.81115489389274      -0.53294807840347       0.85177922729911
C        -0.82305265429391       0.12146918703448      -1.56931604079087
C         1.04993335942177      -1.20469807620293      -0.63978668822474
C         0.74397074866961       1.19790353827493       0.01491286639251
C        -1.66380324448427      -1.76225464708670       0.61137816055789
C        -1.99405046260020       1.06451273492573      -1.38234164331185
C         2.13384503902921      -0.83706932014205      -1.62905047251097
C         1.72306754522537       1.11854826488362       1.17073189800376
H        -0.10781707308938      -0.71114283078817       1.67610095550634
H        -1.42945094946775       0.33727185311671       1.11816716338625
H        -0.14209995877676       0.49098495499890      -2.34524632597298
H        -1.15295082672056      -0.87311690105540      -1.89619030338786
H         1.47257507736808      -1.50715945796185       0.32985058031466
H         0.47288488615096      -2.04716907019031      -1.03831032808811
H         1.25359718460306       1.51118801638181      -0.90686202385817
H        -0.04609526186455       1.92977241174866       0.23032351923031
H        -2.21158758426094      -1.97328987778105       1.54314474676142
H        -2.40307872361525      -1.62001260154385      -0.18687948081192
H        -1.06702045884173      -2.65018626578199       0.36492460106421
H        -2.50361029648494       1.13853983370684      -2.35530858719453
H        -2.73461687048943       0.69211647136999      -0.66001060650129
H        -1.69484901114031       2.08387193604627      -1.09806032430722
H         2.68378455313348      -1.76647638649735      -1.84465276622815
H         1.72343536701128      -0.51400991626778      -2.59482821720621
H         2.84831952996693      -0.09561067958311      -1.24294589332859
H         2.21712108193344       2.09819328908631       1.26021926749320
H         1.23192112245472       0.91399103825465       2.13173347837808
H         2.50937147206289       0.37056729062068       1.00392036751113
N        -0.29222104864449      -3.83206237036255      -4.48481343807287
S         0.43927474085090      -2.47530399801366      -4.93645194367574
S        -0.46304773895828      -4.20547865627433      -2.94611464813684
F         2.03556514601958      -2.76652866430489      -4.58152377124347
F        -1.64869094511027      -3.11174459034943      -2.40917497632872
O         0.39261490730873      -2.38875900616993      -6.37709715802779
O         0.13537290586341      -1.30134928068385      -4.11997571521291
O         0.65477058393257      -3.87515324239970      -2.06450863170009
O        -1.11535191408142      -5.48994247542021      -2.83818288576839
