32
C8H15F6N2P optimized with ForceField in AMS.
N        -0.67615353922318      -0.90687906759029       0.41300562937042
N         1.51379678046683      -0.53603467147508       0.32613607866943
C        -2.08091978340188      -0.80155213140178       0.80151042470332
C        -2.89557308627626      -0.06461763626644      -0.26851725419417
C         0.36609364895594      -0.26673213068177       0.97781903868389
C        -0.16991340572517      -1.60915373003719      -0.62100527050822
C         2.82942439484125       0.03355729617072       0.60087749957762
C         1.18843801938006      -1.37585847513602      -0.67718694877830
C        -2.39833748187792       1.36349887173115      -0.48789280840944
C         3.13510283331640       1.15572443558315      -0.38496728101938
H        -2.17084217690070      -0.26206897981545       1.77034624283832
H        -2.49745291988574      -1.82148315443995       0.94481654981321
H        -2.84873227275195      -0.62127750774458      -1.22936436941762
H        -3.95859004606336      -0.02807842773822       0.05270316141662
H         0.28493348776362       0.41033466093241       1.81994003973362
H        -0.74758852041550      -2.22617559127729      -1.29675983082531
H         2.85761995900305       0.44184515716597       1.63505594175488
H         3.60364886514162      -0.76010520966105       0.52302741652846
H         1.88289864925893      -1.77428177591988      -1.40507157596640
H        -1.36371552419787       1.36006017998123      -0.89228706259427
H        -2.41644580151461       1.93254773488008       0.46637007204535
H        -3.05692472306983       1.87427118165240      -1.22130702778367
H         3.12959581589636       0.76668790226031      -1.42513392952500
H         4.13515250129875       1.58386205032344      -0.16643678991006
H         2.37241587324361       1.95851249603587      -0.29319092281116
P        -2.44091866660222       5.72223306975151      -2.54475722446114
F        -2.07425338128068       6.99564819859074      -3.63764517719990
F        -1.91785101563476       4.53393113951359      -3.66971035032779
F        -0.84085920603296       5.79034228393015      -1.92361937185024
F        -2.83001979503935       4.51476232691075      -1.38838555424282
F        -2.97263229798261       6.89863141106503      -1.41175689396996
F        -4.02125250478988       5.59699014520649      -3.20633667484026
