39
C11H14F6N2O4S2 optimized with ADF in AMS.
N         1.42212297706058       0.90240906648891       0.04494492435240
C        -0.49712416370131       2.55888884467131       0.18615842384371
C         0.45618259947314       1.63894612859969       0.92112169328007
C        -1.22060794260686       3.47054893246964       1.18165327807095
C        -2.11861799046396       4.47536300626825       0.46537771270907
C         2.47961211358188       0.30895592340901       0.64507574660350
C         1.29594494306915       0.89041934091040      -1.29674700892683
C         3.44231233955608      -0.33826247021103      -0.10216441869570
C         2.24363684695961       0.26765899413626      -2.08719429537800
C         3.33410808233657      -0.35229869518414      -1.48810623637023
H        -1.23977481154223       1.98612031783927      -0.39896924262860
H         0.08061570035019       3.20306269000415      -0.49486850910191
H        -0.07950850581010       0.86965974337358       1.50253017954437
H         1.09935989813874       2.23028689125352       1.59151426042857
H        -1.80921431223347       2.86506706162852       1.89501196810973
H        -0.45769301198257       4.01471994548863       1.76537573464356
H        -2.61573024034365       5.13961098006650       1.18718272735463
H        -1.51862118329344       5.09620857678193      -0.21739456556913
H        -2.89951913549113       3.96507275542279      -0.12142940411606
H         2.52807530111291       0.39875940760858       1.72671720857544
H         0.43722301722760       1.40912441437528      -1.70800602458333
H         4.29337893707932      -0.78605367711987       0.40995793498548
H         2.12648262225374       0.29832226872636      -3.16987597003097
H         4.10575111651433      -0.82443816511111      -2.09738505427080
N         2.34813759900405       4.18099352540312      -0.20680676922409
S         2.13528461615468       5.31494118049612      -1.33851564085148
S         3.73141347319797       3.45374258374625       0.16357026471310
C         2.12647740686060       4.43247777067401      -3.01518677324451
C         5.03390157780798       4.72790048035310       0.70446142965704
O         0.74851553923798       5.74785600440125      -1.21985127793867
O         3.22216601015513       6.27435916300990      -1.45601952715596
O         4.36072689584733       2.71756006679827      -0.93307206094429
O         3.46514776944335       2.73147983552097       1.41831300825152
F         1.71664525828401       5.30491038022484      -3.96380752029310
F         1.24291483824918       3.38159718629158      -3.00968579894819
F         3.33749515733544       3.95458418437936      -3.36166237474880
F         5.65704843663138       5.28591484490404      -0.34648642922117
F         5.95798328211531       4.06423250614875       1.44753500196067
F         4.47664123633046       5.69063656705203       1.46731960465801
