41
C13H25ClN2 optimized with DFTB in AMS.
N         1.28937275123669       2.12450450427609      -0.41571067992707
N        -0.78541578538695       2.39316961496529       0.10195833316057
C         2.49107732918152       1.52430984454843      -0.98101815862032
C        -2.22609056698132       2.18617678752813       0.26242805931430
C         3.01280261631941       0.42204379799110      -0.04973313586801
C        -2.78329494305037       1.07872268999653      -0.62667531757136
C         1.96144347805784      -0.66070407068166       0.20316006188616
C        -2.35326046452802      -0.31762272271335      -0.16097785371841
C         0.04160566638607       1.77252861448662      -0.73280036908589
C         1.25805292008807       2.95628643271623       0.67072869240629
C        -0.04910828694573       3.11781179616606       0.99830152822193
C         2.48957822250758      -1.75495067411235       1.13523603528592
C        -2.87219178876908      -1.40453804247402      -1.10526575872519
C         1.36143457971034      -2.70222346796543       1.53870769796993
C        -2.39972928427665      -2.78657589720322      -0.65709833486164
H         3.24072360828922       2.31082208401947      -1.10713378082265
H         2.23255514381166       1.11581375471848      -1.96220435655251
H        -2.72314165529382       3.13866034636963       0.05013906435973
H        -2.36866885592743       1.92824804782832       1.31795898573287
H         3.31217591494862       0.87302352092956       0.90100167229421
H         3.90369929956857      -0.00906175194117      -0.51772500225861
H        -3.87466657479199       1.15299625494821      -0.57806244684584
H        -2.49127882720276       1.24731611312582      -1.66933164594775
H         1.64854159873902      -1.10000245400207      -0.75153449330432
H         1.08670086435789      -0.20314356869372       0.67428166018591
H        -2.73191724052419      -0.49208404810143       0.84924676554194
H        -1.26310713620559      -0.37328026051476      -0.10855688291094
H        -0.22591116638713       1.12625963101392      -1.54891470246762
H         2.15535666002550       3.34301932568701       1.12034310648403
H        -0.51163708604290       3.66525303522260       1.79926426346664
H         2.90701118258659      -1.29003721426208       2.03466250384019
H         3.29276941392778      -2.31336564656992       0.63998509073351
H        -3.96750563334198      -1.38166087978838      -1.12767942978707
H        -2.51311828893264      -1.20920057829025      -2.12300979700959
H         0.93433402042165      -3.18708656605206       0.65854778194307
H         0.57383953867024      -2.14725094933839       2.04936630443480
H         1.74155818688012      -3.47230764094359       2.21091290580629
H        -2.75477855822530      -3.00179801331597       0.35144037885171
H        -1.30950094057250      -2.83444877306536      -0.65747954636486
H        -2.78212299734211      -3.55274236774496      -1.33276893324939
Cl       -0.45759814188591       0.59112492573665       2.41442565497898
