27
C7H10F2N2O4S2 optimized with ForceField in AMS.
N         0.15885861092225      -0.00251473598656      -0.34506298406079
C         1.60304396302819      -0.00743782261167      -0.60951088663038
C        -0.51063908266554       1.18697131652391      -0.24818589386530
C        -0.50741324053490      -1.18750188606579      -0.19220583382763
C         2.38446963180438      -0.00894341796072       0.69964327779083
C        -1.88606547116120       1.20843118984775      -0.00300405433261
C        -1.88310398745936      -1.20194270851447       0.05127738636734
C        -2.57406478137107       0.00509146281578       0.14448060003904
H         1.88419724353055      -0.90180180332574      -1.20874101465737
H         1.89260276933886       0.88448020941175      -1.20833965652252
H         0.01742987843991       2.12682926289374      -0.35697957862680
H         0.02387880544930      -2.12937329620442      -0.25495145578974
H         2.13929572759021       0.89806915592210       1.29188011737886
H         3.47363115842757      -0.01239788550567       0.48375059934219
H         2.13372177914246      -0.91277238843331       1.29421162149452
H        -2.41236209450838       2.15127278799406       0.07244441730668
H        -2.40695210741554      -2.14161120288191       0.16893632189612
H        -3.63978703211736       0.00813780447813       0.33423700194136
N        -2.55073511924796      -3.84957970171873      -2.34081024898042
S        -1.09758354756083      -4.59051174754157      -2.21610004156859
S        -3.17802467616120      -3.45566178488616      -3.79937512264940
F         0.11315819535599      -3.51275642038220      -2.63425392130825
F        -3.66679667636405      -4.84969929070512      -4.58716750068408
O        -0.88852232324043      -5.05385465566422      -0.80240537516715
O        -1.04156734043081      -5.76661129720418      -3.15013793990416
O        -2.13678112459062      -2.76601141439214      -4.63533412066571
O        -4.36085904870042      -2.54896253390264      -3.61063577871602
