24
C4H12F6NP optimized with DFTB in AMS.
N        -0.29023533913804      -0.09174376868880      -0.25711764302686
C        -1.11166609992623      -1.23000748016745       0.23944082687160
C         0.62430927890749       0.36303149192980       0.82103538652862
C        -1.18378068826107       1.03109673415949      -0.65464336648122
C         0.51101448856093      -0.53067983156884      -1.43308660191792
H        -0.44926810884525      -2.04883854175700       0.51291620399550
H        -1.68020494737409      -0.90101278261077       1.10698608760713
H        -1.78702314132075      -1.54420327324674      -0.55294307990715
H         1.22969933271853       1.18728800208314       0.44854776460814
H         0.03215159005742       0.69323129794413       1.67250404644462
H         1.26620574247806      -0.46547321748210       1.11460090133281
H        -0.57208504595953       1.86653209075782      -0.98926230298042
H        -1.82842253249964       0.69354037927639      -1.46294322157971
H        -1.78275748124584       1.32365706494396       0.20526352712117
H         1.10424974873678       0.31008287752155      -1.78727826514949
H         1.16198981878243      -1.34794370407174      -1.12927566024218
H        -0.16923942953585      -0.86356910890547      -2.21328921883044
P        -2.87929272600916      -1.37484609915551      -3.30399239623599
F        -2.36840348525412      -1.93569252510899      -4.73825010036519
F        -1.69589260133850      -2.28692519879775      -2.52510079262865
F        -1.75335737261087      -0.12228768655333      -3.39340442172150
F        -3.31397493023363      -0.77778363579808      -1.78782552754717
F        -3.99371174609993      -0.42034856554629      -3.99751369942119
F        -3.93562441828913      -2.59361930525741      -3.12583129827450
