40
C12H22F3NO2 optimized with DFTB in AMS.
N        -0.41674244710694      -0.18339238706530       0.05003671523584
C        -1.26174079739354      -1.05207599636463      -0.83842982682175
C        -1.41966198469396       0.39016093236850       1.00076081757704
C        -2.55264152563728      -0.26985629434353      -1.04889614559847
C        -2.64786817079477       0.69295844652763       0.14492796710517
C         0.22774118121823       0.88927545314779      -0.78322545837175
C         0.59712120380016      -1.00199422919619       0.78736174801606
C         1.06896189735331       1.89851707840921      -0.00935164518943
C         1.67665272657125      -1.59934591052005      -0.11733743823498
C         1.68655214973996       2.88165544193672      -1.00535613802503
C         2.44936173767999      -2.67551834081237       0.64212478475859
H        -0.72175130782386      -1.24730568920309      -1.76530922155951
H        -1.44417308833423      -1.98873275410354      -0.30616350225475
H        -1.64214373051881      -0.37746826590227       1.74627160982917
H        -1.00617707970103       1.26412667265209       1.50225854452099
H        -2.50525696330885       0.27772551431793      -1.99246460347659
H        -3.40410560991109      -0.95104363682397      -1.08600154769676
H        -3.55751437006985       0.53296229053883       0.72645276101900
H        -2.63737580792270       1.73179820399254      -0.19066496417510
H         0.84646790453102       0.37220385015358      -1.51832374785483
H        -0.57109113811454       1.39653983151264      -1.32540771674523
H         1.04395406483526      -0.36206820925543       1.55286483857799
H         0.04641118862642      -1.80161778243848       1.29173828731440
H         0.45900771905465       2.45311593545029       0.71018076453175
H         1.86962313113072       1.39677021559496       0.54117449921606
H         2.36993135912916      -0.81937928793454      -0.43979026232626
H         1.22593741301980      -2.03167589275065      -1.01302362185143
H         2.31917264582277       2.35284446947716      -1.71806310136917
H         0.90589284167199       3.40612877180550      -1.55632363446953
H         2.29316128623007       3.61405087890367      -0.47372414291858
H         2.91400375137208      -2.25914168930765       1.53712179213177
H         1.78642595084705      -3.48929508886907       0.93886430575550
H         3.23083436979154      -3.08081200278976       0.00076103663690
C         0.13449077838723      -0.26736096324567      -3.81267075701062
O        -0.80271824208045       0.46302484653449      -3.48690618131931
O         0.82652317842909      -1.02489435431905      -3.12081644552978
C         0.54381263942817      -0.20710511001687      -5.35706389227011
F         1.05526977400766      -1.36586182163631      -5.79884609846924
F         1.48378033620638       0.73923039099329      -5.56059442428661
F        -0.49248246387203       0.09490489778160      -6.15295255160142
