28
C6H14F6NP optimized with DFTB in AMS.
N         0.58752668216310       0.20088822532586       0.23538584202216
C        -0.24885964756078       1.38702506083083      -0.19801082357716
C        -0.32728742697334      -0.72834250231865       0.99500768265956
C        -1.63024444606317       1.18034038414215       0.41102224184529
C        -1.73659428729881      -0.33127734731324       0.58478729476524
C         1.71837942402132       0.63387961678298       1.10149942331749
C         1.13333623235937      -0.49286464038774      -0.95843667863222
H        -0.28682513411835       1.39594915288096      -1.28931584434112
H         0.22724648778885       2.30110405695786       0.15371020741927
H        -0.17468069930981      -0.54905696475373       2.05959576575013
H        -0.07016323581832      -1.76076268685194       0.75727824412686
H        -2.40751708715667       1.57863316447906      -0.24180301964106
H        -1.68639433147052       1.68045712065217       1.37956660672985
H        -2.45465507601334      -0.60484405085177       1.35806091696720
H        -2.02100746809340      -0.81590163737068      -0.35383834463947
H         2.37432263879727       1.28288598730713       0.52428592613002
H         1.32178811176203       1.17371554190720       1.95785682695037
H         2.26221221834143      -0.24880915645110       1.43303286122106
H         0.30865773902889      -0.85329308519743      -1.57023668149911
H         1.74086217015223       0.20840600397129      -1.52775805286018
H         1.74793986617237      -1.33056200944349      -0.63259080697282
P        -0.12860858572478       2.64772730907507       3.74689370622201
F         0.15452629546482       3.02600006500918       2.12311883978206
F        -0.50640747066168       1.07351430428066       3.24338967519155
F         1.45403991403683       2.16789613958584       3.85029010639504
F        -0.39535489974574       2.21274219976312       5.28726759655903
F         0.26447927687691       4.16341636840914       4.16874316424457
F        -1.70018905685668       3.05249428227926       3.53207397356438
