37
C11H20F3NO2 optimized with ADF in AMS.
N         0.18990410598016       0.03803870533452      -0.02689028511272
C        -0.79246961970419       0.93675169418440      -0.77171823132031
C        -0.52725549828341      -1.24103757234930       0.36746660304761
C        -2.08388758103801       1.18913885194262      -0.01655416879293
C        -1.80060418787196      -0.99097265955510       1.15541029563720
C         0.73093009825251       0.71768269979919       1.22849512333906
C         1.30428265475015      -0.29458220090159      -0.99906380690820
C        -2.77203579917769      -0.11875375397728       0.36446029390982
C         1.64319478748652       1.89636810676146       0.96984258425534
C         2.41854525134221      -1.15662055972095      -0.43959380940318
H        -0.98410138139537       0.41693297686533      -1.72632407869475
H        -0.25567033694612       1.87142749026843      -0.98645146899866
H         0.19165785391997      -1.84168921225119       0.94070218260105
H        -0.75244105419125      -1.76069437658155      -0.57959447128781
H        -2.72350299372589       1.79510660280920      -0.68126418104897
H        -1.88617004418926       1.79461169983852       0.88921171917236
H        -1.57123802746464      -0.52121109323444       2.12313642107363
H        -2.23939443499056      -1.97796833935132       1.37954798117173
H        -0.13051530455049       1.09588163689160       1.81000838379879
H         1.23687493530464      -0.07419259987078       1.80005770529337
H         0.81917401339524      -0.79152267842993      -1.85346228328294
H         1.69418597715405       0.67134559301104      -1.35100518704184
H        -3.66347045111571       0.09313930914959       0.97470096797767
H        -3.10783994914089      -0.66090717971656      -0.54079730571873
H         1.87131796547409       2.32999535487746       1.95520119341943
H         2.58993364604905       1.63954753002466       0.47210193270362
H         1.13119461136624       2.69620233970935       0.41715637550819
H         3.16977736634937      -1.29380008751750      -1.23209375839697
H         2.92243507803386      -0.68601669287777       0.41504048099758
H         2.07057970341962      -2.15557175884123      -0.14332149224356
C        -1.36120345145780       2.80132589698175       3.67380373141803
O        -1.00466218736160       2.64798412995358       2.46407211962261
O        -1.29115406887480       3.77004828787238       4.43581236676981
C        -1.98565411143470       1.48668234531108       4.27672765623870
F        -1.06410370144398       0.44191730160128       4.25410226800341
F        -3.06716243931636       1.03643368065635       3.53895139651094
F        -2.40988354890301       1.58968165013271       5.55856779248161
