50
C12H28F2N2O4S2 optimized with ForceField in AMS.
N         0.00030783437165      -0.00384627240426       0.00127045162465
C        -0.85038438438756       0.62848131107839       1.07162016142363
C        -0.84547176509735      -0.64737248909874      -1.06620790672556
C         0.85725993795805      -1.06598770655552       0.63850589368930
C         0.84004766955862       1.07049687286778      -0.63833846370098
C        -1.91788871326043      -0.28987620013274       1.72008523842920
C        -1.92217962281286       0.26043884984926      -1.71537833677709
C         1.93029437161942      -1.71004780174982      -0.27655980582392
C         1.90205743106145       1.73372559894746       0.27571702077404
C        -2.72322452178382       0.47601505789588       2.76782178204883
C        -2.72544731490730      -0.51370545112694      -2.75834931273152
C         2.74104253011320      -2.75131226117128       0.49229955455606
C         2.68448887365012       2.79800780014855      -0.49032672453283
H        -1.36021745837545       1.53670619422894       0.67965244504708
H        -0.20966119075941       0.98884452151992       1.90514379762009
H        -1.34654962237395      -1.55895783733207      -0.67077239178648
H        -0.20209623617944      -1.00487788049822      -1.89895498898232
H         0.22105079486647      -1.90141996634098       1.00267260263830
H         1.36472746778826      -0.66652034243006       1.54478425535302
H         0.18998418014484       1.89515707107546      -1.00211845905417
H         1.35238578896137       0.67932523414165      -1.54546209951305
H        -2.63282627085955      -0.67790746043182       0.96770316596642
H        -1.44070930927390      -1.15041083321671       2.23065966674807
H        -2.63733054085552       0.64667792653231      -0.96225776100661
H        -1.45327548634001       1.12230849153328      -2.23120561431767
H         1.45781560225248      -2.22565843739596      -1.13672694838718
H         2.64115815449110      -0.95355474325256      -0.66433302440579
H         1.42148431856157       2.23473365210905       1.13966221728292
H         2.63104688941472       0.99145976005166       0.65770823363830
H        -3.47862831730430      -0.19804000010777       3.22413018503723
H        -2.05400613059982       0.85238603132212       3.57094364458237
H        -3.25081722528496       1.33381287017751       2.29869099023292
H        -3.48620455293420       0.15469430666940      -3.21432702782091
H        -2.05611965920076      -0.88761455663200      -3.56247668485018
H        -3.24656034763104      -1.37324962949031      -2.28538002365391
H         3.49969304378749      -3.20451023493955      -0.18026715852190
H         3.26513879128839      -2.27727931118039       1.34952765562325
H         2.07618879466309      -3.55780081642321       0.86931314548673
H         3.39255280966293       3.30555928700644       0.19741375443487
H         3.26151214483341       2.33194798870561      -1.31730387870000
H         1.99440831761943       3.56171165339457      -0.90879875653378
N         7.02726867231888       0.43739680281433       0.52431351307193
S         6.44065414310262       1.62974002361831       1.47856730695330
S         8.44160852364099       0.61423217596395      -0.27947118146875
F         6.03877028254646       2.94995362345493       0.53148636962942
F         9.71121331194726       0.52275954098604       0.80800366341767
O         5.22025203985743       1.13998032988342       2.20412943217658
O         7.48728056307437       2.04806052211626       2.47243906826855
O         8.48143094515206       1.95267508706794      -0.96167691377966
O         8.57967297841350      -0.47889900774954      -1.29996341298047
