34
C8H18F6NP optimized with ADF in AMS.
N         0.36906612750469      -0.07610141083270      -0.20596124280303
C         1.08645208404724      -1.33925036229582      -0.67726842888299
C         1.45689244320092       0.76205911354524       0.50999206153099
C         2.54054283515874      -0.93794471533096      -0.82681455519107
C         2.76354156362610      -0.02142333149249       0.37945185238706
C        -0.74017926241249      -0.42259684392152       0.75572261052846
C        -0.15810583972274       0.69445234500477      -1.41430577889567
C        -1.83570684415397      -1.28329778613500       0.15872679732122
C        -1.03802292584024       1.87164678537155      -1.05030808934794
H         0.60454008627824      -1.70525471544681      -1.59253525433864
H         0.96669590926731      -2.08397602083378       0.12489725960247
H         1.13725479113791       0.91539505522341       1.54863805177856
H         1.52076151597254       1.72828111203388      -0.00560419808617
H         2.70823254530358      -0.38260288880949      -1.76020665441160
H         3.19324922632359      -1.82302325476231      -0.82028776560632
H         2.95933478719301      -0.61653335975072       1.28654587266516
H         3.59520577209371       0.67861430539040       0.21704888312524
H        -0.25377883750048      -0.93305054685398       1.60118565442396
H        -1.14435323729973       0.53009527392801       1.12476821443245
H         0.73571931923651       1.03369017042339      -1.95855241063326
H        -0.70459050097855      -0.03340965372261      -2.03131143777563
H        -2.56539642761411      -1.50884642818643       0.95118422806621
H        -2.37463128984255      -0.76912099921598      -0.64867433927489
H        -1.45508344528532      -2.24078815952135      -0.22386442383750
H        -1.15893225573074       2.48489046438610      -1.95540192120762
H        -2.03613491036550       1.56779622227439      -0.70196541231398
H        -0.56637930595440       2.52721739917331      -0.30633591554702
P         2.98236632537967       3.39048641764794      -2.05177959387998
F         4.50883917425219       3.25615992265857      -2.62237789890808
F         3.50633515224874       2.96548173421362      -0.52269596087924
F         3.18113637355477       4.97345561055003      -1.70020991434004
F         1.41425009571758       3.44467934406421      -1.43997160032293
F         2.39943131801394       3.73931422092741      -3.54479546560527
F         2.73057430768986       1.74164110139570      -2.36961489677288
