44
C12H24F3NO3S optimized with DFTB in AMS.
N        -0.19480940562224       0.09373098113003      -0.41067364319079
C        -0.73566956805692       1.20623033687030       0.43650454956183
C        -1.19147760034744      -0.21591409768801      -1.49471253543971
C         0.08289758472930      -1.10966140722897       0.44571584973899
C         1.05812775687717       0.57453370938429      -1.10110553530882
C        -2.12357577675690       0.92030988764363       1.00157755413896
C        -2.57736598235176      -0.54592623020950      -0.96658279209994
C        -3.11848690444242       0.59790178184075      -0.11236456144272
C         0.72467860616521      -2.29131236021544      -0.28182379757425
C         2.21988830841762       0.93744667940434      -0.18256711665973
C         0.92592783983044      -3.43815270085357       0.70704206560813
C         3.40214497333631       1.37439150651887      -1.04979552410330
H        -0.03004548016787       1.38124076137730       1.25103292521160
H        -0.77057411413002       2.09515838999771      -0.19914080263613
H        -1.23423923236623       0.66347066195659      -2.14070752067179
H        -0.79452647441235      -1.04531180137133      -2.07771518927844
H         0.72754218095427      -0.77711109953609       1.26366092848599
H        -0.86809408717042      -1.42714763977201       0.87770716049368
H         1.36078455572006      -0.21561371105669      -1.78834653232158
H         0.76852531821412       1.44020809220681      -1.70030468159784
H        -2.08289526858050       0.09787899149167       1.72110441424207
H        -2.44418889886466       1.81566511131336       1.54114463444684
H        -3.22077701413419      -0.70014494952578      -1.83638207347504
H        -2.56888083702337      -1.47631078428742      -0.39211269734067
H        -4.08057376253275       0.31950876329372       0.32388988087659
H        -3.26946692017678       1.48417278020797      -0.73649406370339
H         0.08869413597539      -2.62765102047533      -1.10210854359170
H         1.68920093410611      -2.00911215590766      -0.70653833658832
H         1.94823436901046       1.75292089583014       0.49429748621384
H         2.52120272358873       0.07840453038090       0.42277276222026
H         1.38006078311628      -4.28354419389731       0.19214183626768
H        -0.02856733537642      -3.75836955567785       1.12691786834734
H         1.58230993295882      -3.13407506265508       1.52356943567806
H         4.25041062789717       1.62934070278123      -0.41556562164689
H         3.13536760017549       2.24660769416469      -1.64644952484515
H         3.69623724858067       0.56966075162198      -1.72317529392224
S         0.73169619169432      -0.79535041332104      -4.34474351185522
O         0.33142775422674       0.53980467344883      -3.91338099281253
O         0.92046276313475      -1.71907398889136      -3.22429861817223
O         1.74690156009377      -0.84502584887978      -5.35982209855770
C        -0.81596258988918      -1.44796114955266      -5.13369672535793
F        -1.17639356580810      -0.74004634483223      -6.19429864446605
F        -1.81579593019369      -1.37721789161919      -4.23574058581989
F        -0.69345078979900      -2.71794511391082      -5.49480364765190
