58
C16H22F18NP optimized with ADF in AMS.
N         0.72051290322323       0.58729336849957      -0.45173682823601
C         0.29312633027504       1.04247026801296      -1.84392128292061
C        -0.06403981244057      -0.64957835083827      -0.06698443857963
C         2.21145888224860       0.25832016198167      -0.52343413340676
C        -1.20212735704386       1.25293593473316      -1.97065543917401
C        -1.56958987620313      -0.46669422863263      -0.18454793411221
C        -1.97378030403466      -0.00645195682845      -1.58403195710116
C         0.50015456094614       1.69266535972591       0.53343384455292
C         2.81689037866427      -0.33258673062489       0.73845385601128
C         4.33949495851823      -0.43914742755834       0.58401251080288
C         4.98900991967215      -1.11849402931822       1.78534402205730
H         0.63447196618109       0.25234867659203      -2.52961211075539
H         0.87114252251273       1.94372482253575      -2.06935826648262
H         0.23222098630976      -0.91710988159731       0.95624404108421
H         0.28318035668390      -1.44108810373840      -0.75067761247286
H         2.70820637191036       1.19366541859035      -0.81119397305564
H         2.32088468905813      -0.43402159036425      -1.37181780942026
H        -1.38932329804591       1.52497323775804      -3.02196739489246
H        -1.53164700396406       2.11766531544064      -1.37058931260901
H        -1.93178940402948       0.24538931847810       0.57685838540933
H        -2.03175887721929      -1.43754808127005       0.05968522218890
H        -3.05945447319896       0.17138811846821      -1.62895790801478
H        -1.74620378272042      -0.80776614852373      -2.31032769476014
H        -0.55763296384450       1.96970066550304       0.54264763500349
H         0.79786685797639       1.34639139398205       1.52897194607065
H         1.10740194717623       2.55219852852780       0.22578753100253
H         2.40687071510632      -1.33677415529764       0.94192454435562
H         2.60286292922852       0.29672165924328       1.61917809106628
H         4.75976730167689       0.56918866206272       0.44546806559645
H         4.57840622335187      -0.99730982420974      -0.33768024855954
H         4.62724639544624      -2.15224664754997       1.90545857442308
H         4.77129355436007      -0.57265687946544       2.71770045251943
H         6.08183778852811      -1.15480294202404       1.66651670447548
P         3.81868190885539       2.98492853542017      -3.82414549472229
F         4.58994668622784       1.86466377930570      -4.78117964945421
F         4.72036560903651       4.26234444023306      -4.35837647586791
F         2.82134452423388       1.75705849668292      -3.22112052440914
C         2.63881319118231       3.21171359172663      -5.38862316000280
C         5.31772263620834       2.47221409981039      -2.53431106191132
C         2.88710823842097       4.23064806289648      -2.48953341392988
C         1.60620820850548       2.09023637330559      -5.72104252065376
C         5.80509154737776       3.15013486503827      -1.21301826681483
C         1.56379143443843       5.04178882418709      -2.65320241172063
F         3.42331686332471       3.31485336626113      -6.51280079481423
F         1.89985075395688       4.37490485254365      -5.33598577080614
F         6.46825921249154       2.48134124167952      -3.29083379568033
F         5.08574918024454       1.15371756369467      -2.15716899253790
F         3.79189200797745       5.17304527871154      -2.07237393094438
F         2.59307506387408       3.44375675109969      -1.35874954424011
F         1.00662679785529       2.36219632917949      -6.91238468368764
F         0.60957717967602       2.02712948401743      -4.78652541026371
F         2.17119434226015       0.86782678726728      -5.81342088040834
F         6.87168623798919       2.44248522025413      -0.73146271071892
F         6.21533850122312       4.41724723189165      -1.41063031530649
F         4.86724891784775       3.13824252984766      -0.22546046606987
F         1.68995804147329       6.08560332891811      -3.48882208347276
F         1.20669509266914       5.54941634753069      -1.42999975386495
F         0.53269716134049       4.24916991040312      -3.05489116726421
