37
C11H24ClN optimized with ADF in AMS.
N        -0.76093361306462      -0.26463438931895       0.20221118909423
C        -1.09485895598403      -1.41522566720253      -0.74079708831981
C        -1.88334915981536      -0.31575514917714       1.24516909589575
C         0.57217543635737      -0.49898870599159       0.88181217416310
C        -2.60960271740794      -1.40274163026701      -0.83937244202514
C        -3.06249126458488      -1.04844134478886       0.59038668546562
C        -0.80672117817128       1.03817168496574      -0.55700978859952
C         1.75294409495453      -0.53469384481703      -0.06873220311107
C        -0.36336809030018       2.26025440385076       0.23225211552170
C         3.02511644814963      -0.90225222367593       0.69921058056170
C        -0.65817548011747       3.53096508254087      -0.56298849198966
C         4.24831886036753      -0.95994075416891      -0.21043693187695
H        -0.56246437082592      -1.26481720461528      -1.68923301388746
H        -0.76947462901386      -2.32720322235417      -0.19752267928601
H        -1.49285873925282      -0.92746625816724       2.07511164434062
H        -2.10047116489665       0.71350567659484       1.55698180728621
H         0.43526117098991      -1.47799524746309       1.39612790371569
H         0.68374340260577       0.29201626998456       1.63890090878299
H        -2.97150701042063      -0.67208362176388      -1.58127732354595
H        -2.96882176654247      -2.39789690930469      -1.14142226817008
H        -3.21292215636534      -1.97920475929064       1.16041813646434
H        -3.98517381070727      -0.45082774853588       0.59755526206726
H        -0.17171812706027       0.91111932881444      -1.44739938330848
H        -1.84605126145155       1.15877985374406      -0.89812199527443
H         1.58395915313831      -1.29734988995150      -0.84810547116033
H         1.90459177357765       0.43404725432437      -0.58039864253677
H        -0.88342935664788       2.30448002148994       1.20311464434225
H         0.71534128839950       2.19945774154865       0.44830535466849
H         3.19220615960914      -0.16596668796683       1.50594600290655
H         2.86924772359381      -1.87849776231628       1.19021591621819
H        -0.13930338548851       3.52098022713629      -1.53448589567226
H        -1.73769689436645       3.63463561500353      -0.75526170697855
H        -0.32490552913604       4.42150391208798      -0.01117567387654
H         5.15272672807110      -1.22785080982586       0.35603673658291
H         4.11160709596508      -1.71300464414999      -1.00274246671443
H         4.42822948778382       0.01310168888706      -0.69602592324290
Cl       -0.81649062964172      -3.31863492735981       1.91496928689876
