34
C10H22ClN optimized with ForceField in AMS.
N        -0.56261451408984       0.31295412755929       0.13726516084740
C        -1.53587234338264       1.25084634193104      -0.50732966091568
C        -0.90910305095782      -1.10126601967773      -0.20219830678846
C         0.79101281344954       0.65649512117877      -0.41559169362308
C        -3.01356274445713       0.93041806517351      -0.21586982486076
C        -2.37079012835246      -1.47088261841702       0.11084302239327
C        -3.34034072313807      -0.51477031438701      -0.57585285808037
C        -0.56188871739749       0.51888464614056       1.61163445018147
C         1.97362087521501      -0.17851305761185       0.13475729202438
C         3.30185065043029       0.27637754350397      -0.48530589586720
C         4.46956762344248      -0.53740693206359       0.06742486818123
H        -1.41330067473043       1.23050257235016      -1.61557201406246
H        -1.33841692370820       2.29971028871035      -0.18671366151833
H        -0.26901771490593      -1.81282340815022       0.36357584552528
H        -0.73100635527154      -1.29198812633303      -1.28564869520774
H         1.01564159943429       1.73078678552127      -0.21766328804492
H         0.78835505992984       0.54015573895323      -1.52457026074438
H        -3.65381455622067       1.60344758351660      -0.82654844569625
H        -3.26674650232911       1.13023387779568       0.84572705564342
H        -2.54802832872420      -1.47098465876545       1.20729013515751
H        -2.56875083817199      -2.50288822792109      -0.25212817941140
H        -4.37922728516620      -0.74874981817980      -0.25696689671233
H        -3.27950404888037      -0.64838939908351      -1.67861867359770
H        -1.57290293935809       0.42571841200969       2.05188056522473
H         0.05824884774568      -0.24177259377456       2.13041058196805
H        -0.17765826754306       1.52930915959885       1.87469357006054
H         1.83204186033504      -1.25287151122216      -0.10401862740885
H         2.05664922987476      -0.05658535070462       1.23402399559445
H         3.47525433475549       1.35121244579681      -0.25793486499781
H         3.26625369392320       0.15187596993018      -1.58986497886831
H         4.34437512497513      -1.61153138671823      -0.18619644955396
H         4.52926736165138      -0.42663667287698       1.17115340810679
H         5.42147849677731      -0.17735005759868      -0.37391915293872
Cl        6.47312810224580       1.31501569281556      -2.71327790910981
