50
C14H28F3NO3S optimized with ADF in AMS.
N        -0.47265681462736       0.68009388313403      -0.18631600466167
C        -1.11886805899143       1.58839719105620      -1.22894983202372
C        -1.13889196449435      -0.67819803497856      -0.23209304770445
C         0.99425443380819       0.54702878111237      -0.57633921926165
C        -0.61412960896179       1.26477589100694       1.20818667428882
C        -2.62471196060204       1.68184142527144      -1.09254029567662
C        -2.65307280909393      -0.61325951538645      -0.08601293082236
C        -3.27719127940806       0.30123392226561      -1.13962868441927
C         1.84176536216709      -0.31588614977822       0.34088991651485
C         0.18030931681423       2.53231996341732       1.44971090975005
C         3.30394903117555      -0.25190918339825      -0.11471930857437
C         4.22147145631091      -1.14371906999181       0.71770476868049
C         5.68646983951824      -1.04754188104126       0.29448721229820
C         6.60410800742610      -1.94127263539767       1.12416534437915
H        -0.82725155749348       1.16778479378303      -2.20340196537490
H        -0.60428830428985       2.55692408677575      -1.16450082564347
H        -0.68322635873662      -1.29145117955516       0.55736755690766
H        -0.86486772853415      -1.10661577724938      -1.20954688653618
H         1.37521610190345       1.57659161635580      -0.65392137710584
H         0.99255132751653       0.16065928631968      -1.60622973526492
H        -1.68498235425227       1.44854624642427       1.35404892348713
H        -0.31640395956856       0.46749013590694       1.90626800038913
H        -2.97121701717972       2.31194025500065      -1.92862756287166
H        -2.91280625942681       2.21589568752615      -0.17006873001967
H        -2.92918168185040      -0.27923226653947       0.92937810897078
H        -3.03410205785602      -1.64411481576060      -0.18165951777042
H        -4.36595006018122       0.37368220609235      -0.98715822682257
H        -3.11729900053109      -0.13838048274690      -2.14137170141750
H         1.78515718512673       0.03097781979228       1.38716684920023
H         1.50977279342343      -1.36887473218438       0.32766010087889
H         1.26372186395405       2.35207599804532       1.46238509007567
H        -0.01613986126070       3.31000874314039       0.69955682752623
H        -0.10960027639259       2.92190817165182       2.43772468759622
H         3.65250215648144       0.79500627804900      -0.06265071624328
H         3.37142108529957      -0.54157531285935      -1.17893213595471
H         3.88700251099479      -2.19589002212276       0.63732972318823
H         4.13352278002198      -0.86931055156862       1.78663601031318
H         5.77373563515819      -1.31486765615180      -0.77410616203016
H         6.01727733004349       0.00342043208120       0.37637976778140
H         6.32144096957586      -3.00154085172275       1.02425000227114
H         7.65279586395543      -1.84013020928760       0.80525911736817
H         6.54990294579848      -1.67953000378186       2.19318365156350
S         1.47525181585974       3.37935815374224      -2.94618869268388
O         2.72186803746957       3.91929304860583      -3.48400136734566
O         1.24469755945449       3.61649625918282      -1.49380927387635
O         1.09162320772098       2.02201423266854      -3.39035304387838
C         0.14745804842413       4.45118903332268      -3.73248980622292
F         0.16103091655366       4.34441547620115      -5.08516992856222
F         0.30245223549906       5.76114804722970      -3.41090600171098
F        -1.10864506832290       4.07622781924135      -3.30836840914934
