41
C11H21F6N2P optimized with ADF in AMS.
N        -0.61715513268666       2.03851458282016       0.44370161798740
N        -2.27140712550419       0.66817265167741       0.75592107779935
C         1.84548272680248       2.18955189702133       0.16303687491861
C         2.05692412976067       0.73924863070141      -0.26839976877199
C         0.48141752026039       2.75960624993453      -0.21276574329448
C         3.43449173167908       0.19548914859144       0.11184755857521
C         3.64541250490352      -1.25664143501205      -0.31809799028298
C        -1.37010369300335       1.09952474165485      -0.13449079133142
C        -1.06163498722760       2.23127784104991       1.73289893267207
C        -2.10575577721352       1.37587980659554       1.92902275778351
C        -3.38662023599730      -0.24055243925619       0.44628763068231
C         5.01811719649502      -1.80021660363321       0.07378503717061
C        -4.56452171880207       0.50845410840408      -0.15346622656498
H         2.60424999919437       2.83430525567627      -0.31374105279587
H         1.99782683279098       2.28278396994394       1.25364330271386
H         1.92481961550428       0.66259390661155      -1.36398290794332
H         1.28378757610678       0.09600191936400       0.19049426764077
H         0.36847933512755       3.81657383870087       0.06306218033865
H         0.28122176201768       2.70202121644926      -1.29227554444581
H         3.56981662690080       0.27446570711402       1.20672535303961
H         4.21838083458086       0.82835672142373      -0.34357877082525
H         3.51487146262996      -1.33150729390152      -1.41308102157015
H         2.85501881434538      -1.88473222020257       0.13222671804276
H        -1.30256810753421       0.79103098957697      -1.16799926361605
H        -0.62581318837714       2.97909937828150       2.38249682712578
H        -2.76396854529256       1.23832095069827       2.77734572788494
H        -2.99409616051243      -1.00820934689456      -0.23819408339557
H        -3.64913076437576      -0.74589920823188       1.38835396348257
H         5.16015976539148      -1.76195495252650       1.16570828932066
H         5.82307448293487      -1.20783110246681      -0.38951679863606
H         5.14506375530408      -2.84654034560272      -0.24500739384085
H        -4.92292666542134       1.28852190627591       0.53217962828579
H        -5.38185228282757      -0.20095029597630      -0.35120152637973
H        -4.28390010463610       1.01085219703857      -1.08973448593745
P        -3.01631143489297       4.13306664833293      -1.57846940921010
F        -3.92062458162285       5.37790007878680      -1.02172558698533
F        -3.24697034749587       3.31458807079652      -0.13492683991200
F        -4.35002601458693       3.38247599822904      -2.19609010925661
F        -2.07736946650587       2.82883817356605      -2.12213964115450
F        -2.73998431890325       4.90004193669969      -2.99754482407510
F        -1.63819945301072       4.80659524868774      -0.92866510683887
