31
C7H16F6NP optimized with ForceField in AMS.
N         0.83077675172235      -0.00102678855445      -0.04128226002179
C         0.07038145277004       1.22836657883196      -0.41265278943965
C         0.07207503574490      -1.23217561836899      -0.40997078446844
C        -1.36076555024945       1.25626924445274       0.15078091588962
C        -1.35951697262102      -1.25991646219362       0.15297775536872
C        -2.12990427184027      -0.00240656066882      -0.24563728321340
C         1.16972575561085       0.00077687244450       1.40606941596547
C         2.10576857658627       0.00008103600148      -0.80054794705912
H        -0.00593693635139       1.31482562084592      -1.52148603799325
H         0.60436060942369       2.14033113031698      -0.06015346466564
H         0.60757596270986      -2.14257798758488      -0.05598207382569
H        -0.00516972869370      -1.32118575356049      -1.51850095927694
H        -1.88959642114055       2.14483540462497      -0.25656246316512
H        -1.34710300122603       1.36479481620944       1.25561386093181
H        -1.34616345176522      -1.36657961788781       1.25798756469838
H        -1.88771750110269      -2.14929863397423      -0.25338219956038
H        -3.12033025196886      -0.00224424620182       0.25839318385355
H        -2.30334140318561      -0.00321290384469      -1.34409848888302
H         0.26866424021333       0.00227092373764       2.05029266842263
H         1.76585447114293      -0.89890959134874       1.67820001760193
H         1.76881728584399       0.89936478710710       1.67518351781875
H         1.92409400508340      -0.02549362224665      -1.89888041005240
H         2.69874521981963       0.91592111415901      -0.58407650854319
H         2.72994418766435      -0.88513432911427      -0.54248824070681
P         6.65204797153165       1.89191377854183      -0.32553571750929
F         7.35269203560008       1.04114141823187       0.99171466946881
F         6.73779891561615       0.47854213201562      -1.29811468122508
F         5.10800505301875       1.41558709752448       0.25311230102409
F         5.93492787913068       2.71513367852972      -1.65190529257210
F         6.52809030945734       3.32380912611477       0.61495571785969
F         8.22680711225455       2.36617640385943      -0.82125922582216
