59
C17H34F3NO3S optimized with ForceField in AMS.
N        -0.01907944839342       1.99383487973149      -0.01405810049268
C        -0.68486346269826       2.90373770288963      -0.99602916723157
C         0.63748872082596       2.90388856889377       0.97434135322922
C        -1.04356274015669       1.15551428121559       0.68890545803129
C         1.01385063287515       1.16762395151050      -0.72017841288060
C        -0.21332284305913       4.32049520555259      -0.72950841025152
C         0.13258162322565       4.31287241544136       0.73271607296103
C        -1.78117915119571       0.13704089332827      -0.21330794173977
C         1.76546551159036       0.16071550319966       0.18545330526183
C        -2.87804824053063      -0.58621808754148       0.57869174234921
C         2.88651614600613      -0.53584489717806      -0.59614175723836
C        -3.62438873682649      -1.60022633276976      -0.29687206435760
C         3.64882307579362      -1.53229866892513       0.28626242292637
C        -4.68811513652087      -2.34567723733223       0.51803302633435
C         4.72673195763874      -2.26348847613049      -0.52314816239858
C        -5.44370884542824      -3.35162423743302      -0.34510419448524
C         5.49269813017304      -3.25821691172632       0.34386768303467
H        -0.47943150195199       2.63286735699430      -2.05697248835386
H        -1.79349606631061       2.90738233410370      -0.88332979697680
H         0.45057314212063       2.61349046554437       2.03384964418418
H         1.74441858646882       2.93378457955588       0.84894983174603
H        -0.57628365410515       0.59691309578212       1.52498295911492
H        -1.80253619783388       1.81860628489773       1.16612143812963
H         0.55437384152369       0.60544849770083      -1.56289265810312
H         1.76521096919280       1.84144475993335      -1.19438944146561
H         0.69647746419292       4.53624019064390      -1.33247038863485
H        -1.00126965622419       5.07075766100003      -0.95841355348363
H        -0.78162988465601       4.49685416046108       1.33947935652260
H         0.90306424020573       5.07730687614203       0.97403214203459
H        -2.23985158527012       0.64821428380237      -1.08543902786154
H        -1.06960670005272      -0.62704740651604      -0.58910083238592
H         2.20459362905268       0.67721091387688       1.06472739072153
H         1.06636936129366      -0.61903149985903       0.55257624992937
H        -2.41532768644315      -1.11654404760119       1.44052497620075
H        -3.60314034499045       0.16017941742498       0.97150535499817
H         3.59798712918579       0.22727768623587      -0.98177022359014
H         2.44388436437549      -1.07594642910067      -1.46218341070474
H        -4.11297970468020      -1.06658647607862      -1.14183240113320
H        -2.89946097623286      -2.33426633638889      -0.71301445074020
H         4.12672851885348      -0.98590706740789       1.12928363891091
H         2.93618942617587      -2.27655982162447       0.70537892365835
H        -5.41480844380031      -1.61817330220994       0.94104069172766
H        -4.20316804709733      -2.88808500113882       1.35891040315790
H         4.25323255574746      -2.81373419611734      -1.36544522787192
H         5.44475369547139      -1.52618522667767      -0.94403374491989
H        -5.96443309803466      -2.83176684683151      -1.17723324391949
H        -6.20105377063362      -3.87666398652902       0.27456434719307
H        -4.74288280761398      -4.10535062002403      -0.76299549763854
H         4.80038278228804      -4.02020538722705       0.76097817031520
H         6.25822858072882      -3.77478447434956      -0.27293211141218
H         6.00450651022923      -2.73046959289376       1.17652378460924
S         0.46116570669080       0.22781193371947       5.25807567903869
O         0.86486210323809       1.70121433363807       5.09610716864909
O         0.13639266875160      -0.20401371240658       3.82179429884546
O        -0.92461435985156       0.31290996375886       5.91544938255858
C         1.66739851379186      -0.82605382537289       6.11392855138187
F         1.84860547866703      -0.36814295711807       7.40511418155438
F         2.87283460042895      -0.78911342811913       5.43874344403426
F         1.20025784688875      -2.12641591495004       6.14822370872715
