40
C12H25NO2 optimized with ForceField in AMS.
N        -1.48271832564264       0.41730520002000       0.03492703801903
C        -1.78936348835529      -0.88801553614754      -0.59112037578553
C        -2.54087110972462       0.57348882090040       1.06003373913396
C        -0.13911985904939       0.42840871324889       0.68760417491330
C        -3.30227470335482      -1.06476552700270      -0.55523053845731
C        -3.78873512384377      -0.13827815851132       0.54665741100969
C        -1.59961798953358       1.51326070003391      -0.96352404212712
C         1.04395131079904       0.26318336200072      -0.29352860311632
C         2.35317387050282       0.00682377661727       0.46379663278790
C         3.53817940404502      -0.10250473158666      -0.50281297040108
C         4.82794504702618      -0.43494838595105       0.24196058030026
H        -1.33343758657843      -1.72297801781746      -0.00951823627144
H        -1.41025385223291      -0.96085786070733      -1.63540940171310
H        -2.75198061465257       1.64197751799817       1.29233541434633
H        -2.24895270789419       0.08550786264721       2.01933550990073
H        -0.08024434812261      -0.38691892266398       1.44528777954564
H         0.00083280725148       1.38402431964377       1.24348447388399
H        -3.57711728678196      -2.12179112554639      -0.34666989255697
H        -3.74175608418844      -0.76003041794828      -1.53081716996432
H        -4.51033666875300       0.59910434385827       0.13559815023172
H        -4.28348732001870      -0.71063901522886       1.36180477926535
H        -0.93574119920496       1.34043826838167      -1.83745432580313
H        -2.63601182334980       1.59223491441817      -1.36013616570131
H        -1.33346538388251       2.49362282616075      -0.50978870019510
H         0.86026378838193      -0.58885384039536      -0.98099355387020
H         1.15943536093330       1.18944487400712      -0.89647173328123
H         2.26148757488563      -0.94001971995200       1.04073250064961
H         2.53741665144403       0.83968174773872       1.17795547567623
H         3.67075786647064       0.86102934724641      -1.04172224138171
H         3.34167842102854      -0.90059391542352      -1.25172989643712
H         5.05320202202686       0.34999452396749       0.99505238852125
H         5.67054182277012      -0.48867265939473      -0.47915753834079
H         4.73526288747987      -1.41740980007771       0.75230916881592
C        -4.80814006949982       3.72755796294003       0.13460323156634
C        -5.77445484157376       3.02277660656188      -0.76383292101231
O        -6.92769928488757       2.85175016545189      -0.40337675590353
O        -5.41409964201301       2.61324239640719      -1.85569596167966
H        -5.16356682117802       4.76144254993256       0.32659070661037
H        -4.73223633557343       3.18444330267390       1.09972054639910
H        -3.80090104575570       3.77447922299848      -0.33167620917742
