39
C9H20F2N2O4S2 optimized with ForceField in AMS.
N        -0.04596512223385       0.25063973523241       0.17149065127660
C        -0.97300966254826       1.23056116303600      -0.48067322530439
C        -0.47605913143016      -1.14973327785232      -0.12903429558114
C         1.31584872678986       0.49963958747904      -0.40932283031021
C        -2.46535839686695       0.99069010174712      -0.18237045848149
C        -1.95175933217342      -1.42629683632445       0.20423477775954
C        -2.86460994787868      -0.44212144652671      -0.51654616978904
C        -0.00885933617535       0.48991782110426       1.64029802347263
C         2.45704761814048      -0.38559597434233       0.14944644691694
C         3.78326077978255      -0.05454369952920      -0.53147692236477
H        -0.85683212215735       1.19349822808964      -1.58903988467378
H        -0.72049328745659       2.27102176241874      -0.17244765101802
H         0.12630724095441      -1.88357086402596       0.44835374969924
H        -0.32082409801956      -1.37744745358873      -1.20878897946901
H         1.60563715221691       1.56440174603514      -0.24801441865520
H         1.28921591436034       0.35076888833793      -1.51401355310946
H        -3.07177398801526       1.68481057695963      -0.80384347410993
H        -2.70563375034804       1.21970946437919       0.87629766036783
H        -2.12313322142717      -1.37473430567275       1.30037207070550
H        -2.20550386879079      -2.45778879546945      -0.11986604362285
H        -3.91758227883521      -0.61690774389472      -0.20693412208658
H        -2.79623706662971      -0.60373654424109      -1.61511025596260
H         0.55890352608556      -0.30475579990117       2.16910391961330
H         0.45810673286989       1.47239225624255       1.87479501243252
H        -1.01887765664312       0.49022088964570       2.09350204415502
H         2.58921721393344      -0.21858676688617       1.23791694258163
H         2.24919629696405      -1.45984319779527      -0.02944713724012
H         3.71358033988553      -0.23989917026135      -1.62463633662560
H         4.05393584842440       1.00847591207606      -0.35591271731796
H         4.58678796739712      -0.69791015113804      -0.11447463452255
N        -5.45022299032581      -4.12624513363606       1.51276416381264
S        -5.56861056528692      -4.87690210539156       2.96171020029389
S        -4.57611790691813      -4.77345940594669       0.29093994231013
F        -4.12440726821713      -4.70919739960834       3.79155402412021
F        -5.30285532777116      -6.19175716271126      -0.22222154144256
O        -6.67768326441399      -4.25443880120573       3.76147540598932
O        -5.84774584293026      -6.34030015861325       2.76181625635865
O        -3.18586689017889      -5.08590727056723       0.76910948500203
O        -4.51264558033277      -3.80175844495356      -0.85305567978037
