32
C6H12F6N2O4S2 optimized with DFTB in AMS.
N         0.31163237466357      -1.09498445342963       0.32351032537829
C         0.06426956047485      -2.53418843996619       0.61371184511148
C         0.30336277322172      -0.33290697259547       1.60024126822890
C        -0.75539679889714      -0.58437746499481      -0.57457086590622
C         1.63383841150397      -0.93394576577504      -0.34135432054456
H         0.81730245973519      -2.88689831518792       1.31424534501657
H        -0.92760176961918      -2.64505786126720       1.04662827706274
H         0.13975432150599      -3.09937833494752      -0.31130466417500
H         0.49266767652873       0.71817936682717       1.38952179885354
H        -0.66884675195259      -0.45052542779638       2.07495654490966
H         1.08251696858609      -0.73115349442250       2.24604218169917
H        -0.57628142626827       0.46925222096598      -0.78174976442850
H        -0.73359814137660      -1.15466759477632      -1.50124370249267
H        -1.71992176825225      -0.70856878121003      -0.08585977197319
H         1.76423279177714       0.10914650304874      -0.62422684717410
H         2.41191669104166      -1.23804197386766       0.35236462955925
H         1.66641421693304      -1.57524063361582      -1.21910515560212
N         3.51110270597749      -5.46658396256026       1.69564974485096
S         2.00306244100733      -5.68550305789129       2.20793917944407
S         3.81222255959274      -4.07156983888952       0.99417776976962
C         1.04071625150351      -6.29064883848552       0.70516403699249
C         3.95499355785612      -2.78906093751279       2.37538476475686
O         1.99930563019358      -6.80200105522557       3.10732421433002
O         1.30832523493142      -4.47452731119576       2.61179603294972
O         2.74341930772866      -3.52803155113489       0.15898303340944
O         5.13029998330419      -4.11981480755900       0.43026543525900
F         0.35570773119569      -7.37788251628223       1.01032181087018
F         1.85085019629760      -6.56079349093388      -0.30302774904693
F         0.17597832474151      -5.35268724429536       0.30770055577505
F         2.85070794285813      -2.01691122133927       2.39710727812926
F         4.98398332880284      -1.98839637009621       2.14520906237921
F         4.09460004080326      -3.34349509388785       3.56067962530783
