48
C12H22F6N2O4S2 optimized with ADF in AMS.
N        -1.02822967308941       0.33969509561278       0.13350211550183
C        -1.41477158790220       1.45380302885960      -0.82243768086192
C        -1.94172042529361      -0.85652345148295      -0.10666085208349
C         0.40822688439152      -0.04328244838043      -0.18000771828984
C        -2.88258209288967       1.83864570919524      -0.73451392918685
C        -3.40961596484506      -0.49552230678133       0.00682230600640
C        -3.78851582561223       0.62716453560705      -0.95337378341694
C        -1.12982720285330       0.80855937133962       1.55635647099106
C         1.00387864430547      -1.13328199570414       0.69168722318127
C         2.44441594038124      -1.43312327617849       0.26948071164851
C         3.05880362105158      -2.52893947842034       1.13715759634269
H        -1.17912029614609       1.07463774791796      -1.83037161827617
H        -0.74872463671347       2.30291834808245      -0.60396057166372
H        -1.67608294579094      -1.62287648913524       0.62957148378388
H        -1.69261571221407      -1.21158624530440      -1.12090681172681
H         0.99143423482288       0.88870208325621      -0.09386012052966
H         0.41101009720490      -0.34711894794153      -1.23963276105760
H        -3.05975230117589       2.61195132986489      -1.50077439249546
H        -3.09949589977377       2.30977163579926       0.23824435345212
H        -3.65404669043465      -0.23379282373440       1.04832595830222
H        -3.97660284514377      -1.41725502672641      -0.19897354288053
H        -4.84215082385111       0.91360235899929      -0.81009351355777
H        -3.68422923874920       0.27906147131457      -1.99838507318935
H        -2.13614266935088       1.18523678643313       1.75181908943899
H        -0.95655057527699      -0.04509882502293       2.22261558878780
H        -0.38402053164922       1.60066901423439       1.70605399644683
H         0.40747876766649      -2.05602435643519       0.62792080635149
H         0.99514352978039      -0.83619868557915       1.75140355736321
H         3.05329385948001      -0.51332509353538       0.34293436316837
H         2.46655594085005      -1.74084442043500      -0.79222091515068
H         2.48011590412487      -3.46232416157048       1.05761034827490
H         3.06208017763393      -2.23273902270546       2.19789531395457
H         4.09524813635445      -2.74057890619487       0.83747232269520
N        -3.21029849125489      -2.23692353131571       4.42329242313408
S        -4.14469560383494      -0.93644870712460       4.33251405916108
S        -2.35768476788184      -2.73629344890411       3.17123956665154
C        -5.80016639935337      -1.55274101388419       3.62940046999814
C        -1.91102169946017      -4.43597036570787       3.83987030861081
O        -4.48362289706442      -0.51892774672296       5.68110538712185
O        -3.70158841155292       0.05769815342333       3.34380589209334
O        -1.05283886610119      -2.06939016650424       3.00768074780516
O        -3.11461401276433      -2.98953532321893       1.93861086636403
F        -6.08683451454474      -2.79961931297521       4.06082621155676
F        -5.79089219925674      -1.55728555749569       2.27250519669536
F        -6.78300926632730      -0.71414415102569       4.03892905387171
F        -1.18304589379924      -5.07175292407133       2.88266629662178
F        -3.01228597712436      -5.16822405137072       4.09747362822967
F        -1.16268709537176      -4.34742619365043       4.95847945286015
