61
C17H24F18NP optimized with DFTB in AMS.
N         2.75509068119491      -1.99574484064103       0.64425479567704
C         1.90988918396776      -3.03617816810623       1.31871436033809
C         3.80144618688488      -2.76372675978829      -0.13832181897547
C         1.95944914791035      -1.14559141763668      -0.29781711890584
C         2.86737339672230      -4.18730321267106       1.58984513825640
C         3.74662770628934      -4.21290120413805       0.34171402788028
C         3.42217496200980      -1.14655550125835       1.66978295385297
C         0.83489688088303      -0.35463227174669       0.36760959522812
C         0.01217960267370       0.36767966754827      -0.70662455889108
C        -1.11669607713921       1.18732528973699      -0.07424163977006
C        -1.94067962169871       1.91087644685896      -1.14419338726305
C        -3.06682584176398       2.73042475042750      -0.51710871524930
H         1.12547414486505      -3.33835641962487       0.62045101482375
H         1.45939103706525      -2.61587010458221       2.21747871700894
H         4.76944692949312      -2.30447074349282       0.04829368626740
H         3.57378414555411      -2.68192449237861      -1.20150819822334
H         1.54317261621260      -1.81457972047279      -1.05583293098306
H         2.66584006727603      -0.46518377796830      -0.78058348145490
H         2.32342356830456      -5.12151491418830       1.73149415190074
H         3.46566196195121      -3.99090199955547       2.48134575155347
H         4.74817218141413      -4.58252267189941       0.56115533043783
H         3.29875753894468      -4.84783257727135      -0.42647405478283
H         2.66948426701575      -0.65887576444370       2.28501744400834
H         4.05163813011979      -1.77687397162853       2.29043349488761
H         4.03699783559084      -0.40432129056182       1.16614774117626
H         0.18338056151030      -1.02588299030011       0.93381870509119
H         1.24651130239987       0.38447742379406       1.05949142179251
H        -0.41061949899945      -0.36930819938912      -1.39764986189700
H         0.66868538317507       1.02869833670319      -1.28183985673252
H        -0.68897800753164       1.92086860808183       0.61741944436923
H        -1.76809463667258       0.52300316184743       0.50386798668201
H        -1.28557211143694       2.57208614978156      -1.72109181902626
H        -2.36551920040900       1.17470983243067      -1.83487610376631
H        -2.66064613852181       3.48326579810889       0.15957716328467
H        -3.63793712341622       3.23518081286731      -1.29618228484316
H        -3.74185890846163       2.08482455498797       0.04623854230706
P         7.54108973979354      -2.39469596421793       1.48060662637553
F         6.74571427593599      -3.34526307696290       0.32461334655322
F         8.87293000987405      -3.38369677911214       1.48414603643402
F         6.15993417648221      -1.35973683856020       1.46566989082013
C         8.25722229939510      -1.47226037667445      -0.10013999995642
C         6.65026626921485      -3.60867633778144       2.81377180197939
C         8.26142102104905      -1.23522120862181       2.94698013313297
C         7.29439292461290      -0.61210898502763      -0.96507855059390
C         7.34064989579201      -4.12741880174705       4.11345763927028
C         8.83070318618783       0.20545313512987       2.81593368464222
F         8.75786702310200      -2.40156739635119      -0.93075596783375
F         9.27842835369610      -0.67003102364103       0.25007150703347
F         6.31764575071291      -4.74662462740996       2.16671532120472
F         5.46845216230441      -3.07056689755931       3.21935898142655
F         9.18551103861195      -1.94291126709331       3.62032363543466
F         7.19073049542469      -1.10150124344960       3.76712362348376
F         7.90591108807711      -0.18921708423159      -2.06905090889812
F         6.84451654230447       0.45704638100366      -0.31415397640466
F         6.22090759663116      -1.32056770770951      -1.35222196294203
F         6.63224805976947      -5.16746360403024       4.57486786142057
F         8.57450726608169      -4.55394333103221       3.88162409978353
F         7.37373048688062      -3.22151276585389       5.08146391050367
F        10.10320744229844       0.20463227014162       2.44358232334232
F         8.75510673172147       0.82595519416171       3.99508807846378
F         8.12426764306872       0.92407715229967       1.94234621006432
