39
C11H14F6N2O4S2 optimized with DFTB in AMS.
N         1.68507715913726       0.08785701820236       0.11672207623581
C        -0.29001153814076       0.51893971022105      -1.24826830789961
C         0.22597356856263       0.23853251757287       0.16765656736328
C        -1.80790334225845       0.70740795311344      -1.25768320760972
C        -2.29250032302002       0.98349562836746      -2.67979626560928
C         2.46274354982838       1.17336230544543       0.24611800313805
C         2.20914885255291      -1.09941163672093      -0.22839701337786
C         3.82692012041715       1.08739167531533       0.05751204728852
C         3.56678800525359      -1.23809742421568      -0.42301496347035
C         4.39505699406352      -0.13119966423893      -0.28630061338546
H        -0.01019443821936      -0.31376886531195      -1.89850833578669
H         0.19751567552763       1.41749421336531      -1.63242570774202
H        -0.20043821659887      -0.68456635416543       0.56863132193213
H        -0.00878355622311       1.06556841009116       0.84211639630983
H        -2.29499101436062      -0.19236302456716      -0.86484498676145
H        -2.07536264416224       1.54624136744127      -0.60589931923442
H        -3.36960084953573       1.14993691043755      -2.68014939618648
H        -1.79767140940032       1.86672344587400      -3.08274079800830
H        -2.06693843593125       0.13686206409185      -3.32844464727250
H         1.96885322776147       2.10809491750990       0.47997690412009
H         1.51773916437988      -1.92319317254989      -0.35726471918827
H         4.42880424348200       1.98286880449636       0.14206524034045
H         3.96453318753549      -2.20138028631041      -0.71504388591554
H         5.45928034847898      -0.21466222626422      -0.46755337723453
N         2.78636363875001       1.72070921948199      -4.69390719755188
S         2.80749700261000       0.38787271049836      -3.82309925614112
S         1.78875711708403       2.87134268072015      -4.17488230711670
C         1.52098288775528      -0.80370174367545      -4.49170456118802
C         2.58687007098107       3.58926277010239      -2.61756740204746
O         4.04927162038382      -0.30580736567417      -4.04929070660620
O         2.38648924314807       0.55413597041671      -2.43620649497210
O         0.49309400576083       2.42524893754383      -3.71107864013669
O         1.84249932089462       3.94300872521277      -5.12568121124642
F         1.42528382953950      -1.81218956071965      -3.61967209892875
F         1.88119707578077      -1.29173339943918      -5.66420445877304
F         0.32746846919176      -0.24667301607920      -4.60350060154563
F         2.70430708678750       4.90035035948187      -2.72421597221304
F         3.79208582590813       3.07653839083975      -2.39088860365206
F         1.83096475789446       3.32810147138907      -1.54447536102652
