34
C10H21NO2 optimized with ADF in AMS.
N        -0.06103990823960       0.48623234572843      -0.13223489668981
C         0.95704820439714      -0.56483186195093       0.23829183389688
C         0.78123107450800       1.75591348098383      -0.16768146229849
C         2.22294050851654      -0.20058070392307      -0.53414449750044
C         2.12378174782686       1.33002102197356      -0.75897920191679
C        -1.15700987625949       0.59897721412672       0.90814603928709
C        -0.62601473530927       0.19781564055708      -1.51228983814228
C        -1.97057482372108      -0.66541782239974       1.07903101897461
C        -1.77534948319005       1.10990707853081      -1.90243931298408
H         0.55934731479580      -1.56382279692798       0.02075739382140
H         1.10785651766298      -0.45977510728097       1.32240384012042
H         0.81789764199341       2.12434755310222       0.87425573218951
H         0.22112423060621       2.52754173739220      -0.70873545086752
H         2.27295970309677      -0.74217801124753      -1.49022259781590
H         3.11269369956694      -0.48451848550331       0.04526386269446
H         2.93474264945693       1.87312678617368      -0.25278179470179
H         2.19661092179661       1.57145720338323      -1.83042501514992
H        -0.65095968221711       0.90614638334829       1.83480081320988
H        -1.74279728188661       1.48838319850045       0.61233918142986
H         0.21829336568890       0.30662349260902      -2.20778931395526
H        -0.92929264315678      -0.86011463803328      -1.51623734003710
H        -2.71093474710726      -0.47234967196900       1.87036195255188
H        -2.53100634842195      -0.94594857477417       0.17460364916058
H        -1.36847817672219      -1.52863446793628       1.40300809625671
H        -1.90406989195430       1.06945260441268      -2.99416437668013
H        -2.71899126430599       0.79369933482818      -1.43671297936269
H        -1.60276074541995       2.15277811896158      -1.59284367517323
C        -1.69544105732650       5.23708029136655       1.84641965194086
C        -1.17960030825342       3.87752343686831       1.35090774191703
O        -0.36086624266882       3.27659760515991       2.11036093932865
O        -1.62070743200956       3.47335795718533       0.22248668848771
H        -2.43305773733459       5.66495740687174       1.15406147787979
H        -2.14436609973602       5.11957714937715       2.84476719736514
H        -0.84833588177252       5.93178614480530       1.95771868766297
