50
C14H28F3NO3S optimized with ForceField in AMS.
N        -0.69552824218847       0.53576799784327      -0.20076755422480
C        -1.66517024930160       0.28025218095595      -1.31568871596203
C        -1.25494559719019       1.61282411413889       0.68036799794579
C         0.56628411597349       1.04516433443303      -0.84056749832521
C        -0.44143234530597      -0.70073805674150       0.61882488940558
C        -3.08342975627139      -0.08072697110094      -0.84376721059461
C        -2.67631370617244       1.31899557611695       1.20417452330885
C        -3.64073570421574       1.01416893553405       0.06087963362121
C         1.76322041855422       1.28283199944189       0.11488945359479
C         0.22615191666439      -1.87932155777554      -0.13039992854440
C         2.96243329744981       1.83705350924994      -0.66312082979431
C         0.43822978838758      -3.06602617230322       0.81852733356636
C         4.17582267306458       2.04069344211937       0.23894100209821
C         1.09908526993329      -4.23928778356098       0.10077653186806
H        -1.30220878609992      -0.51405296456327      -2.00029437134658
H        -1.76041015704300       1.19027813507101      -1.95388708850071
H        -1.29646106175221       2.58272457759536       0.13268446497317
H        -0.60935650768758       1.77627080857881       1.56977579193788
H         0.36172979944283       2.00807547088263      -1.36479985033703
H         0.89919005048132       0.35145099916733      -1.64500129746922
H        -1.38286342599664      -1.08967264830638       1.05187817150139
H         0.18174267575814      -0.44995455815631       1.50525283180519
H        -3.09878444325613      -1.06191099396808      -0.32644389729603
H        -3.74300910283795      -0.17898705211325      -1.73312153736017
H        -3.04700149014767       2.21021677667573       1.75529755568614
H        -2.66728251498805       0.48010143339670       1.93066329734078
H        -3.81079213958599       1.93748427095484      -0.53570530723928
H        -4.61886870158402       0.68905636285642       0.47645945377007
H         2.07628640723533       0.33415641874243       0.59629832235812
H         1.49410157295642       2.01436672413410       0.90369928898175
H         1.21396681841297      -1.58092654458489      -0.53640446251036
H        -0.41692781806715      -2.22110516003461      -0.96621593289153
H         2.68504744538180       2.81457929912784      -1.10873582491411
H         3.23832010728225       1.13638479376951      -1.48175700235228
H        -0.54157447018262      -3.40088122661276       1.22412003712698
H         1.08335674352139      -2.75628062672767       1.66957888252457
H         4.48585938248198       1.07646622583044       0.69466926364743
H         3.94080688181222       2.77064985082369       1.04225353492803
H         5.02132913306431       2.43602482400862      -0.36320290229913
H         2.09644172533006      -3.94162023345035      -0.28717468910926
H         0.46374227813462      -4.58262610758634      -0.74327502390698
H         1.23118778085503      -5.08223615240670       0.81129997129414
S         2.96613201636960       4.67334651330194      -4.58156340932960
O         3.31499435574584       3.82847812507247      -3.34997710823704
O         1.51078093869949       5.08792141588730      -4.31970084129797
O         2.83943486203690       3.62402434869948      -5.69535113998801
C         4.11752994707337       6.03229740586290      -4.91905974686790
F         5.38583911118989       5.52113260145740      -5.11532775127191
F         4.13267509671836       6.90020386727473      -3.84428255314044
F         3.71246097676324       6.70919050148780      -6.05282975507365
