35
C9H17F6N2P optimized with DFTB in AMS.
N         1.21561460673091       0.45278565009074       0.55886955834631
N        -0.62292979428638       0.83045602097609      -0.49460970874740
C         2.44584286594505      -0.18966052073680       1.00764119964186
C        -1.75148209331948       0.66137431330691      -1.40364717136869
C         0.30358624011254      -0.09005780870148      -0.24651545658794
C         3.58509667303506       0.03269122332615       0.00269124982196
C        -3.07444314054693       0.72628871526909      -0.64263864762725
C         0.88143058419585       1.75960917696618       0.79381414936088
C        -0.27948701541018       1.99630411632691       0.12907355229315
C         3.42499372063847      -0.80806907618674      -1.25944932205951
C        -3.20628470863226      -0.40455487176824       0.37604303378213
H         2.24267441207984      -1.25659252765495       1.13880587511227
H         2.70453703732472       0.24480420226906       1.97682232282823
H        -1.62676004715062      -0.29967112245901      -1.90691915896560
H        -1.69026842788661       1.46081900771421      -2.14608127143369
H         0.31386492241391      -1.09326514285339      -0.63376414510408
H         3.62303005976943       1.09184421872514      -0.26247914905236
H         4.51831262866602      -0.23017538696499       0.50962113701963
H        -3.15606278434300       1.69227553400606      -0.13595031647522
H        -3.88394402080471       0.65952781520671      -1.37438501279676
H         1.49507225876280       2.40556115734683       1.39626937376824
H        -0.86124546973477       2.89415357075357       0.02074418764268
H         2.51839341088551      -0.52939446555702      -1.79320185406358
H         3.38290530748504      -1.87085931641167      -1.01491991652331
H         4.27278342496359      -0.63212591327826      -1.92024578523359
H        -2.40863899557916      -0.34618462801856       1.11824012438534
H        -3.14915857880082      -1.37434428158399      -0.11982014213887
H        -4.16428226674618      -0.33228232518146       0.88986319245243
P         1.36922938245045       1.94970408912877      -3.21452203318994
F         2.67222039003579       1.16285635044727      -3.81043783767223
F         2.08488258495598       1.97202215550119      -1.70105622346953
F         2.02486660189631       3.39932249185591      -3.55239276964385
F         0.03571087816568       2.69999665392411      -2.53760941957477
F         0.61115499083286       1.89307896921623      -4.65474475718954
F         0.68132389329532       0.46205184169944      -2.81192678173738
