43
C13H24F3NO2 optimized with ADF in AMS.
N        -0.37889062451716       0.05441481593762      -0.06155191282746
C        -1.27130975776545      -0.97640607182072      -0.71237508460685
C        -1.15256167610325       0.44052550112644       1.18938999994313
C         0.94966108978184      -0.54955182943311       0.37320435897488
C        -1.83659189711410      -1.80498273263945       0.44072758749695
C        -1.78263611213904      -0.86669483187223       1.67792391638843
C        -0.19440406969138       1.24101790157117      -0.98014876126942
C         1.86023913032719      -1.00013760152941      -0.75276898797590
C         0.67431048054811       2.34720251698707      -0.41243837958303
C         3.21890950065772      -1.40290105336689      -0.16537466013142
C         0.66589436885427       3.55324414503156      -1.34922001360097
C         4.18992846840995      -1.88108169940277      -1.23976504872964
H        -2.06330107524080      -0.41499882053271      -1.23121477645373
H        -0.69256476066536      -1.54181195654618      -1.45328677903780
H        -0.44577496050804       0.92337568267546       1.89179863581150
H        -1.92003777610385       1.15833117418822       0.86007586331868
H         0.69517697068557      -1.39137531851494       1.03398345051878
H         1.45992159725182       0.22145540038146       0.97872194707331
H        -2.85906792880194      -2.13370509197085       0.20397139353138
H        -1.23848501749569      -2.71331491183458       0.60494525697648
H        -1.18495047467305      -1.31113032018980       2.48654482848572
H        -2.78315635885657      -0.67122950421579       2.08951747792170
H         0.21285704356007       0.84975765682450      -1.92563524266648
H        -1.21469488604584       1.60692902140665      -1.18416621116679
H         1.43588991809560      -1.84720012338931      -1.32230776072564
H         2.03108957038071      -0.17425152482739      -1.46390020773704
H         0.31351863918733       2.63664259541222       0.58774901253656
H         1.70450377234270       1.99393990930685      -0.24737069438125
H         3.62667214215713      -0.53170098744030       0.37395918452632
H         3.07191149872220      -2.19769740688415       0.58814374816655
H         1.04128355368041       3.29543374797089      -2.35268464232681
H        -0.34648959158642       3.97336765463333      -1.46529170345481
H         1.31281795888566       4.34411326894291      -0.94343846075325
H         5.16891270351526      -2.12869351260291      -0.80280673752333
H         3.81367254406430      -2.77952838501064      -1.75588112803062
H         4.35257889526761      -1.09977117364946      -1.99960453755012
C         2.35401613331386       1.85158788679914       2.55115632036211
O         1.12655237458398       1.73851544697111       2.80900598800786
O         3.01989968891451       1.45081096031307       1.56606018123672
C         3.16958422958916       2.59487956830901       3.66261729178614
F         4.40661252296515       2.99631973214333       3.25037350953181
F         3.35913528318081       1.77155529554276       4.74802885682968
F         2.52176593798503       3.71216098059881       4.11754580870768
