52
C16H30F3NO2 optimized with ForceField in AMS.
N        -0.07094184894034       1.47355441583458      -0.00887595371487
C         0.51289543127806       2.41140271062120       0.99933891187100
C        -0.73652025123723       2.35661132517502      -1.01559775686021
C         1.01781602432593       0.69024523903646      -0.67873990568716
C        -1.08323366138025       0.59460039281164       0.66193062323322
C        -0.02554851313807       3.80143349640266       0.72131729864448
C        -0.30029375637250       3.78436674529626      -0.75452416761164
C         1.77231388239024      -0.29273884783376       0.24935188552365
C        -1.77494205159751      -0.42794139863934      -0.27164807678628
C         2.98809674990561      -0.88921533709773      -0.47259242819227
C        -2.87397794972116      -1.18537582654602       0.48554261157496
C         3.72597881158696      -1.89781836502465       0.41565274427757
C        -3.59011243093578      -2.18859375087016      -0.42576461570252
C         4.93248953721024      -2.48891093176629      -0.30854421742215
C        -4.65899601098567      -2.96185728548009       0.34147946688386
H         1.62327304623122       2.47477242864571       0.92568107501271
H         0.28434496832598       2.12441563020525       2.05138278245059
H        -1.84679918741902       2.34002861341816      -0.92177961519604
H        -0.50402263123314       2.07866388716908      -2.06922568786838
H         1.75909602602702       1.39486713165272      -1.12368400210779
H         0.61127068173677       0.11238010599749      -1.53813940266862
H        -1.87211696312406       1.22993332211851       1.12881962303505
H        -0.61748623854329       0.03831240996766       1.50552499967284
H         0.70517219725708       4.59352193089234       0.98961051249963
H        -0.97418455659814       3.95858190180358       1.28152560974566
H        -1.08782620670120       4.51831678673614      -1.03266477197043
H         0.63539472269313       4.00292016231898      -1.31606131148765
H         1.09940518432111      -1.12510179145373       0.54515275611414
H         2.11684211123080       0.22234612332915       1.17106293889464
H        -1.03642778208205      -1.16837585779210      -0.64350422490529
H        -2.22723484583123       0.08457343017503      -1.14683642085688
H         3.68651437026606      -0.07004728862160      -0.75400284754391
H         2.64781623539697      -1.39922235528917      -1.40117617418522
H        -3.61747013279887      -0.45893360395013       0.88254973261273
H        -2.41704709813586      -1.72814196478226       1.34279545661236
H         3.03710130087505      -2.72389609950674       0.69780539676423
H         4.07509514666773      -1.39557827067878       1.34426172580633
H        -2.85422798189421      -2.91061681260648      -0.84235485397172
H        -4.07328253276614      -1.64902151799546      -1.26954720007613
H         5.44117077308976      -3.22059996964573       0.35395225970923
H         4.60980537606518      -3.01251300231112      -1.23397719559538
H         5.65487125345926      -1.68728309715687      -0.57343766789754
H        -5.16239874597217      -3.67699260910992      -0.34268085506092
H        -4.19817803743354      -3.53299349553882       1.17582243971594
H        -5.42134371216738      -2.26489730141013       0.75104649809906
C         3.44979077035456       5.11873018190531       2.61551934005731
O         4.52987226750565       4.76753242330514       2.16798184755770
O         2.80080459099837       5.96838338392258       2.02688900045038
C         2.91991401660079       4.51707456833362       3.88262337473982
F         2.68862855564756       5.51756534336814       4.80796654523632
F         3.82831856336358       3.61602230499672       4.41022021209373
F         1.73376036679812       3.85881524046798       3.62183607727987
