47
C15H29ClN2 optimized with DFTB in AMS.
N         3.07358717252801       0.89146258205538       0.03817624729845
N         2.87144521122243      -1.23618332099987       0.31619598834729
C         1.54397357190508       2.78890363801186      -0.26908692860329
C         2.91223456924455       2.32716934357493       0.24571099752005
C         0.97377922467938      -2.58502420604165       1.10364367127377
C         2.49205952663199      -2.51879922484989       0.90141036628960
C         0.38723568084723       2.18446143814778       0.52812525251562
C         0.21728525153034      -2.46855835060273      -0.22196297197617
C        -0.95792909445057       2.53604698255776      -0.11345533839768
C        -1.29139204989091      -2.33932861727628       0.00169117271122
C         2.69720677255606      -0.05018796809531       0.90316368188543
C         3.44966292224047       0.30051106985136      -1.13303134122891
C         3.33512386095643      -1.04307904563689      -0.95443223760403
C        -2.11901819992560       1.93349448500880       0.68157989187821
C        -2.00631145273329      -2.06686631544850      -1.32557024367867
C        -3.45982128808875       2.21888990818099       0.00742168212802
C        -3.50837688855703      -1.88300620613207      -1.12153683356469
H         1.51853721773919       3.88037997814041      -0.20587468240675
H         1.44657827306223       2.49620125676247      -1.31745582385829
H         0.67155330819776      -1.77775117666333       1.77838265721772
H         0.74501972584707      -3.53615824930810       1.59417889584438
H         3.71448678245236       2.83246732511715      -0.29779087572027
H         3.02325160643105       2.52630040109388       1.31595413430779
H         3.01374734404630      -2.62672799515629       1.85749243619106
H         2.82948123250869      -3.30374381556210       0.22043447886779
H         0.42191276437484       2.53801225702673       1.56592709563261
H         0.49019144813245       1.09453647624103       0.53777899252863
H         0.42985084941873      -3.34479518789166      -0.84291711609109
H         0.56509053485243      -1.58117944129645      -0.75730091386562
H        -1.07163278405223       3.62432445035263      -0.16685929966384
H        -0.97107226469728       2.14190640842534      -1.13386735171555
H        -1.48175291317760      -1.50895833096166       0.69180066116024
H        -1.68425047094909      -3.25310837471416       0.46311908555083
H         2.36177372235068       0.11487941015100       1.91175355975332
H         3.74553623983131       0.87291357804101      -1.99316330372347
H         3.50258378937510      -1.85840177154318      -1.63499144873762
H        -1.97912309287316       0.84990861052367       0.76173514175422
H        -2.12459503740422       2.34461646647020       1.69786205171064
H        -1.83050437042738      -2.90233820028615      -2.01128505639350
H        -1.58490210034791      -1.16523468254972      -1.77957719333262
H        -3.62966755544551       3.29405524524050      -0.06809176752034
H        -3.47684415914113       1.79420721419808      -0.99680184033923
H        -4.27268925740612       1.77818953350347       0.58558340414007
H        -3.99252113082050      -1.68228838958837      -2.07747980864525
H        -3.70348295148544      -1.04361437319716      -0.45213797871457
H        -3.95310895164261      -2.78101726498304      -0.68832803488371
Cl        0.79954626395418       0.27867008010807      -2.25551425574182
