62
C18H36F3NO3S optimized with ForceField in AMS.
N        -0.53310254202102       1.79163500821418      -0.19951686516321
C        -1.39450438745394       2.32975793721494      -1.30274019734453
C        -0.21873813372063       2.91072183906574       0.74869891340888
C        -1.21076145378797       0.67488412848602       0.54892736777038
C         0.74720720707113       1.33216490903220      -0.84197869987075
C        -2.68314229470705       3.01322232650076      -0.81632469717478
C        -1.46326407848861       3.64674281178040       1.28668466499891
C        -2.35200215273284       4.14592004663888       0.15040548453016
C        -1.51548988434887      -0.59948786384826      -0.27553429957673
C         1.77034043959988       0.64926696668149       0.10003543139389
C        -2.19375724958500      -1.66131761339404       0.60110740347422
C         3.04528395657719       0.27580878388029      -0.66917353067721
C        -2.46846352136822      -2.94216445230543      -0.19525448530077
C         4.05191574523512      -0.44368774995712       0.23674615864742
C        -3.14105768508438      -4.00099801318795       0.68560859492513
C         5.32815525453304      -0.79658859241626      -0.53618524652398
C        -3.36262308300053      -5.29872160289940      -0.08478197925926
C         6.33250972565662      -1.51953392054509       0.35617765753842
H        -0.82923989687635       3.09167257654873      -1.88990280283068
H        -1.66078345398191       1.54099670179523      -2.03652670873362
H         0.34271671419560       2.53916299660701       1.63265774252903
H         0.42973205136098       3.67053706725168       0.25412501771541
H        -0.60243347077972       0.38400687968131       1.43336551811290
H        -2.17170252786247       1.01361324319318       0.98190444738322
H         0.53022164301042       0.63441328349756      -1.68147966948755
H         1.26155193207299       2.19819432516505      -1.32033425292759
H        -3.21832746245725       3.43795334493731      -1.69319514865913
H        -3.37476261725348       2.28513643751102      -0.34471625303812
H        -2.04619409997624       2.99469666886691       1.96995510126859
H        -1.13138145769495       4.52048945320272       1.88851907915001
H        -3.29245166430675       4.56385852452852       0.56951099819166
H        -1.82836922957037       4.95959419480558      -0.39824757633715
H        -2.19969140864414      -0.36424852223947      -1.11548033268603
H        -0.58169496807430      -1.03599907265177      -0.68414987659758
H         1.34429688294483      -0.28025189708419       0.52997306617441
H         2.05399796921934       1.32966499014135       0.92831917653744
H        -3.15443335027680      -1.25869339912447       0.99210513707826
H        -1.53491101029629      -1.90206087280942       1.46474653166536
H         3.51279585161574       1.20001922572365      -1.07538687430639
H         2.78101079837015      -0.38927402073771      -1.52096404333276
H        -3.12870820198456      -2.70825939159631      -1.05960102313906
H        -1.50650969073614      -3.34401592289515      -0.58372142846379
H         4.31160624865784       0.21365713674962       1.09586718598652
H         3.59095051881839      -1.37613992322264       0.63153969534550
H        -2.50087080533857      -4.21436861276903       1.56912730450926
H        -4.12290224905002      -3.62214909498229       1.04528724185960
H         5.07576982650845      -1.45266150207230      -1.39780574931173
H         5.79832979637237       0.13216515492924      -0.92713922143685
H        -3.76531789996536      -6.07139439104026       0.60229876162758
H        -2.40377611125799      -5.66982126631051      -0.50505780214392
H        -4.08859373303939      -5.13728236423067      -0.91009820895135
H         6.61956436774287      -0.87551832346290       1.21460734805707
H         5.89714997973496      -2.46780231425195       0.73738357972166
H         7.24520233802835      -1.75805545441063      -0.22971499787687
S        -7.07076233252147      -7.81219133676105       1.60815649807141
O        -6.58979651183135      -9.13999788505223       1.00461854172394
O        -6.33437802411777      -6.76026075407634       0.76729302651892
O        -6.34104164960395      -7.75376950106920       2.95831471804963
C        -8.86858822601985      -7.59987116306059       1.68552069431679
F        -9.42110707178082      -8.61104172753445       2.44713798800776
F        -9.39136237930435      -7.64657967168964       0.40779651896594
F        -9.16222566292463      -6.37775751954188       2.25848202229611
