55
C15H20F18NP optimized with ADF in AMS.
N         1.00147462215565      -0.29447412740073      -0.23735536071867
C        -0.07184088298784       0.77598704212963      -0.21196600702966
C         0.33830509480677      -1.66679015363750      -0.19400529684167
C        -1.01858501328692       0.65468344550026       0.96960766918292
C        -0.62870527322804      -1.81974082821589       0.96841762531731
C         1.94910170101781      -0.17069287300767       0.94701967776136
C         1.74700859284539      -0.13445639052383      -1.55568944732611
C        -1.68644194597947      -0.72001847025641       0.98714669288320
C         2.74522141421552       1.11597324893172       0.99868478335860
C         2.91838392464642      -1.06799362098454      -1.77313478461065
H        -0.62938683233105       0.65663025446465      -1.15551304398562
H         0.44094843459011       1.74701449399108      -0.24144764993632
H         1.14166127947037      -2.41112154119383      -0.14319439358579
H        -0.18878097967988      -1.76890433991050      -1.15707247679843
H        -1.76616145891991       1.45978568780368       0.87278639193129
H        -0.48581039535042       0.84187860419823       1.91713263634152
H        -0.07849239274366      -1.85964283860419       1.92095350716305
H        -1.08925314777107      -2.81472874105145       0.86131931224117
H         1.33240826472833      -0.28252359836760       1.84539007982175
H         2.60183374581159      -1.04927073576967       0.89942510869227
H         0.98061624308877      -0.27808207450458      -2.33279018102294
H         2.06279097042414       0.91866310356169      -1.59075674510134
H        -2.33336724733168      -0.82365197967034       1.87225497363206
H        -2.33900107959099      -0.81512567928735       0.09932530279814
H         3.36496968416068       1.07727267279874       1.90637112618667
H         3.43443817561116       1.22359956291866       0.14986675726554
H         2.11578294127615       2.01458067676243       1.07134185081432
H         3.33533434415247      -0.84199899101101      -2.76669535139811
H         3.71944652988916      -0.92986941618716      -1.03635498005082
H         2.63140549936671      -2.12672577407128      -1.76329349590939
P         3.75339538712018      -4.48086589221207       1.21575649767522
F         5.02432316551253      -4.60046130505707       0.15144372095501
F         3.32972376355391      -2.98261768934805       0.51078486699515
F         4.08852262698721      -5.93098123179303       1.94069247235915
C         2.65940748829168      -5.44060231682099      -0.14545480906913
C         5.07927978373110      -3.60361438916023       2.40862666746269
C         2.17381853607103      -4.16664416479997       2.42447260352973
C         3.41077556296280      -6.20135205464568      -1.28797695582227
C         5.58865723054356      -2.17810389107432       2.04029398260890
C         1.84786544715166      -5.09716946493513       3.63087377437523
F         1.79888543191305      -4.58980692049830      -0.84269156957137
F         1.87273774188209      -6.39065918906990       0.45914933183704
F         6.20655538492636      -4.39190711067917       2.42507366726598
F         4.66912770851884      -3.49604123266638       3.72069762383978
F         1.01010933169558      -4.18670513776882       1.66666620520843
F         2.23898549033576      -2.88088391743969       2.94522071670859
F         2.50290780122553      -6.93987437154285      -1.99522106736016
F         4.34501971950802      -7.04955097680488      -0.81535712381800
F         3.98559885121323      -5.34121190158984      -2.16472591697863
F         6.65845697484227      -1.85476430143832       2.81454027386777
F         5.96815473470122      -2.06775348474462       0.74803105222741
F         4.62852941851700      -1.23301240975245       2.27999427992200
F         0.75465913511333      -4.59204961066777       4.28878924348771
F         2.85503619192217      -5.17688101030166       4.52084401581123
F         1.53237246220361      -6.34185842719404       3.21683687340685
