63
C17H36F2N2O4S2 optimized with DFTB in AMS.
N         0.54038062245008       1.69114262713423       0.38681246831934
C        -0.14508979414607       2.60032640476798      -0.59636747644509
C         1.03296961533403       2.51181347842495       1.54733991209361
C        -0.38186664817375       0.62145622124123       0.89608885034134
C         1.72942479636911       1.09953683313761      -0.33443071067336
C        -1.26565800251020       3.42633756282455       0.02049207303393
C        -0.05989669448777       3.34659694642162       2.20248199243552
C        -0.73292246531930       4.26153710576384       1.18232060060633
C        -0.84113225767658      -0.39561314132577      -0.14676357341958
C         2.59666538753678       0.16694202095506       0.50490634833780
C        -1.86724080875304      -1.34170516187245       0.48945611600191
C         3.69008920157754      -0.43642854024386      -0.38659257601464
C        -2.33922491419432      -2.39468954779000      -0.51772849348573
C         4.65582786913420      -1.28512611052468       0.44414432280612
C        -3.36479106638517      -3.34262094899275       0.11204165277881
C         5.76627915616694      -1.87281172327671      -0.43203975191850
C        -3.83640405830962      -4.39495428198519      -0.88970069450230
C         6.73203105222685      -2.72277005459842       0.39141908526532
H         0.62057117270128       3.27090295597962      -0.98871857216739
H        -0.51931840594006       1.98376886057022      -1.41532775240254
H         1.47650477602072       1.82851608669147       2.27312254853269
H         1.81376045951520       3.17267495454482       1.15595620209435
H         0.14001191095759       0.10827318180152       1.70717102902175
H        -1.25410851282145       1.12070157833624       1.32145790540912
H         1.34051310814180       0.57654316506192      -1.21096094314108
H         2.32671792724542       1.94210196268673      -0.68640584779687
H        -1.64676339162647       4.08494068562805      -0.76406154428250
H        -2.09125962457089       2.78862740708781       0.35073159324005
H        -0.80283190547952       2.70802814431594       2.69041519435149
H         0.42074988058520       3.94768385076768       2.97871469418474
H        -1.55244594240735       4.80708979440163       1.65546993443618
H        -0.00771112529814       4.98722306510419       0.80316544710350
H        -1.29934944365516       0.10743876813190      -1.00195733672683
H         0.00541643254585      -0.98284345025586      -0.51027147652096
H         2.00094407639703      -0.63906843693267       0.94284858696137
H         3.07186272179851       0.72385520424979       1.31572276393956
H        -2.72585704292377      -0.76223565173083       0.84529116171543
H        -1.41571210428967      -1.83780581593945       1.35513034165403
H         4.24347323605913       0.37046408291089      -0.87434277464494
H         3.22819244859904      -1.05119747139433      -1.16699044245444
H        -2.78560535480863      -1.89440696223096      -1.38383853070477
H        -1.47723688197939      -2.97013775860668      -0.87183208641624
H         5.10057609122198      -0.66135766214890       1.22636543909729
H         4.10514918625561      -2.09632659415704       0.93439685049994
H        -2.91599499260920      -3.83923258672261       0.97891620447818
H        -4.22488896309420      -2.76418005444056       0.46593566679631
H         5.32059432853970      -2.48830328166128      -1.22149595155840
H         6.31660896776026      -1.05817816693034      -0.91344198483207
H        -4.56417512649140      -5.05666936706971      -0.42002652687718
H        -2.99488880278286      -4.99497076928780      -1.23844978679078
H        -4.30474400569633      -3.91900860706194      -1.75224153915674
H         7.20356066507866      -2.11903623623259       1.16814302862814
H         6.20439430080695      -3.55051349245939       0.86783279187194
H         7.51176692750856      -3.13156338828943      -0.25157782881962
N         3.23156052252530       4.30565232960036       0.24872125071074
S         2.80494299742664       4.96768405344213      -1.12722932539617
S         4.52821651419671       3.37641972462220       0.26309838810368
F         2.44530818458426       3.65987423708218      -2.06874497148117
F         5.74678992654451       4.40847282527127       0.41144111693838
O         1.51922966677750       5.56002824006747      -0.91352544165038
O         3.79257194383804       5.67082185555670      -1.86736067354944
O         4.80087257023325       2.64599959770771      -0.93466600400199
O         4.49792245657015       2.66017881367067       1.50224899024279
