46
C12H26F6NP optimized with ForceField in AMS.
N        -1.62840575649914      -0.29165553403074      -0.18381992879509
C        -1.91015128346618       1.12308566599779       0.20942256840290
C        -2.64097293004575      -1.21129483357354       0.42660670819675
C        -0.29292418395156      -0.71165173489456       0.35719845250053
C        -3.35381433279339       1.56706267667768      -0.08164926895760
C        -4.10400514545452      -0.80932966665127       0.16401296078591
C        -4.35659906080264       0.63328457641998       0.58498162828198
C        -1.63512496052409      -0.44307686437728      -1.66529545336357
C         0.93085177798828       0.06611589007268      -0.18647535856758
C         2.22536765420178      -0.45804246977578       0.44990234587458
C         3.45359671734622       0.26636837583111      -0.11246161551056
C         4.74572872332280      -0.28192943086326       0.50419202025118
C         5.97475618750352       0.42247242366678      -0.06304481442957
H        -1.24054961399124       1.82655380281691      -0.33110695779625
H        -1.72125132079007       1.26575189250708       1.29849468717325
H        -2.51006803118271      -1.24934286235664       1.53346007533933
H        -2.49620829504457      -2.25238823931572       0.05633820555339
H        -0.28661394853148      -0.61014374238631       1.46769450519366
H        -0.12499088276215      -1.79380507916850       0.14506487668890
H        -3.50394063524980       2.59452844801192       0.31495641393865
H        -3.53618772810719       1.60589303044809      -1.17602988548248
H        -4.37507174171102      -0.95251456089689      -0.90200167962129
H        -4.77118155843468      -1.47432081575049       0.75434645006228
H        -4.27078389612934       0.72006754492577       1.69119804506879
H        -5.38740185285465       0.92826516624220       0.29338163865935
H        -1.00116047124763       0.32462166738336      -2.15768232802935
H        -1.26927486025185      -1.44983354108939      -1.96733316598127
H        -2.64589228820316      -0.31795107877689      -2.09853455869772
H         1.01184286526435      -0.06133568536635      -1.28553780949212
H         0.84152115430288       1.14626160248498       0.04885249237656
H         2.18127335337056      -0.30707485015718       1.55112153961316
H         2.31948395737091      -1.54763233710869       0.24619678452176
H         3.37197339128699       1.35412401121953       0.10555633660318
H         3.48564199256458       0.12652327573210      -1.21434662157496
H         4.83012977774877      -1.37022383076451       0.29338676361700
H         4.72659872345317      -0.13632759513260       1.60601040011817
H         6.04206125309482       0.26101686713927      -1.15994316437473
H         5.92840271371724       1.51250270122852       0.14667155904837
H         6.89025653477639       0.00858679539483       0.41126430478332
P         3.56004204449596       1.15046703215185      -4.70547963118073
F         4.32206114699739       2.67956194304716      -4.52691865870176
F         4.67542642210417       0.65156439842669      -5.91278530951125
F         4.64800599082109       0.49719647627251      -3.54910215900036
F         2.72716089685956      -0.34920304451821      -4.79556747107539
F         2.43341829801959       1.61892635990758      -3.49585995690301
F         2.59214475301777       1.79390296254842      -5.97042620750628
