43
C11H24F6NP optimized with ADF in AMS.
N        -0.38570812874371       0.18471094519174      -0.03673297902282
C        -1.29024112713171       0.87991389807134      -1.04153766155328
C        -0.83402510087103      -1.25588815100081       0.11210140921116
C         1.02204764466081       0.22070926658761      -0.62922256752975
C        -0.43396642605235       0.85991849445106       1.32893844039777
C        -2.76137308110505       0.78335622458345      -0.68092755964876
C        -2.30687697198309      -1.40098681556980       0.47024747545631
C        -3.20165840959047      -0.67389790902851      -0.53318905915820
C         2.13494185026992      -0.28837164727772       0.26627631674681
C        -0.00039793890357       2.30876286131489       1.35762161605738
C         3.44485129011416      -0.33102939876011      -0.53277607062688
C         4.62393324430155      -0.77027162088885       0.33110181143230
H        -1.09643916765484       0.37260932058746      -2.00110491939608
H        -0.92452457705504       1.91019244281413      -1.13622129771841
H        -0.18501459202355      -1.71811166456411       0.86787085296803
H        -0.63021833609541      -1.73262957259665      -0.85996181804486
H         1.20883191052891       1.26395179981846      -0.91794324423841
H         0.95483174948295      -0.38177167075119      -1.54948260418618
H        -1.46763886144775       0.75398186484341       1.67904084426921
H         0.20196318469772       0.23675902577799       1.97579756708257
H        -3.32498490581008       1.28302802097232      -1.48665463512737
H        -2.97443331467330       1.35257483326738       0.23961008074305
H        -2.49466736521043      -1.03341618401078       1.49264402190876
H        -2.53200264035008      -2.48097380522940       0.48712396529098
H        -4.25631536401359      -0.73440601838443      -0.22038827955812
H        -3.12832667791883      -1.17610155985996      -1.51562855418230
H         1.92069393948268      -1.29767560999207       0.66186180975835
H         2.27439218350695       0.39325799252798       1.12180121267314
H        -0.09435626797758       2.65803704146382       2.39831889767040
H         1.03874197328915       2.45869931824318       1.03775830195534
H        -0.63069036184256       2.95634131261117       0.73368206540500
H         3.63295009512252       0.67215729530725      -0.94920735641961
H         3.32631550544668      -1.02236442287362      -1.38675911859514
H         4.46384967303944      -1.77692893579822       0.75000101738884
H         4.77573727154645      -0.07132297481481       1.16850239397778
H         5.55539780626810      -0.79246342555943      -0.25385832114783
P         2.19214361508825       4.03256549193968      -1.49113215603772
F         1.67278682585040       5.13875704366330      -2.57792658177930
F         0.68021489537593       3.25945949200092      -1.57980653249428
F         2.71742005179246       3.03456535581632      -2.69914939871457
F         2.67310702681265       2.85974030655287      -0.37219179660602
F         3.66155778217570       4.73912743197747      -1.38158878511764
F         1.61382961410062       4.93662881237528      -0.23819049058966
