35
C9H18F3NO3S optimized with DFTB in AMS.
N         1.17975053883867      -0.26067334608605      -0.42143990340508
C         0.78828166746002       1.04829204219917      -1.04952843862575
C        -0.04821101056033      -1.07063913902158      -0.14992243441230
C        -0.22554755779553       1.82999910182866      -0.22606687289374
C        -1.05119460431255      -0.32935719354441       0.72732584898520
C         2.04163196458040      -0.98165524494473      -1.43302032300349
C        -1.46462516018138       0.98857717462685       0.07367451254531
C         1.94934773562846      -0.02869298095429       0.83309548227117
C         2.80002275927062      -2.17617411461838      -0.87961219133492
H         0.37258385306216       0.81259846323427      -2.03274135434212
H         1.70355955405072       1.62918803159274      -1.18355223424033
H         0.26386930302324      -2.00244846918932       0.32611796563669
H        -0.50251504672942      -1.30285786339506      -1.11748718043045
H        -0.50678786914135       2.70990423938911      -0.81011899618591
H         0.22486978974641       2.18464179274326       0.70434838298293
H        -0.62855728956551      -0.14486285670851       1.71841471777441
H        -1.92399769198645      -0.97560141698477       0.85179552000874
H         1.37779996130546      -1.28705413026468      -2.24589600731413
H         2.75277025235770      -0.24773265448377      -1.81772391891592
H        -2.13436447730691       1.53671671275615       0.74031453959233
H        -2.00406613891616       0.78083399001102      -0.85629055797612
H         1.42531632125608       0.68581926720739       1.46061692658951
H         2.05737016787402      -0.97139390634258       1.36421941050458
H         2.92933780674937       0.36444676063872       0.56794628227147
H         3.24446855445406      -2.69899492482056      -1.72636520734731
H         3.60773375093125      -1.84956314377378      -0.22669365354214
H         2.15405838626551      -2.87113978538692      -0.34416656495118
S         4.69574054644829       1.58236928243659      -1.32347867954423
O         3.54014718910205       1.67225565769378      -2.21183852736652
O         5.96375176595832       1.90414067873735      -1.91155287271797
O         4.66938099554046       0.38930540789356      -0.48213831934341
C         4.34193732914900       2.93510230783976      -0.10025068678699
F         3.10095190041626       2.72995733879828       0.40170140759395
F         4.35044969930814       4.13819359036251      -0.65289283487812
F         5.18382013861901       2.93013894803025       0.92288639660186
