23
C7H12N2O2 optimized with ADF in AMS.
N         1.55648410064860      -0.59958964805638      -0.81936679434967
N         0.14494022818048       0.81843101257720       0.00057136440743
C         1.15724012992428      -0.00678776498874       0.32041411383692
C         0.85354076522650      -0.06900019489935      -1.88812321343090
C        -0.03768844193117       0.82245981415331      -1.37175517508983
C         2.75200065295023      -1.42209902088311      -0.90428952971964
C        -0.44460661548712       1.74709229686977       0.95203455152325
H         1.64173723139338      -0.03256694552338       1.34297414755616
H         1.03340675685501      -0.38305016947279      -2.90851998356209
H        -0.78900822204936       1.43536594733566      -1.85330607885687
H         2.79251801876489      -2.08138329622432      -0.02950205963604
H         2.70666516237289      -2.03005530972303      -1.81534364592680
H         3.63405408809770      -0.76534130849505      -0.91146095718149
H         0.04871354682083       2.72440367225303       0.85478492118756
H        -1.52239746125058       1.83208667705157       0.76451074729685
H        -0.26734379109717       1.36208577385243       1.96250715680375
C         4.26610654875681       2.38540502302758       2.42490995683238
C         3.19699740522620       1.50661918194433       1.76923262805811
O         2.55759240828979       0.70422690570879       2.53129549715282
O         3.02683983582168       1.64553681614748       0.51947527139475
H         3.96818400867269       3.44291897097451       2.35167704729330
H         4.40527301592838       2.11720828768277       3.48049133729812
H         5.21724884438506       2.28317300648771       1.88138315991192
