41
C11H24BF4N optimized with ADF in AMS.
N        -0.65100734108110       0.12795452723570      -0.17344724378682
C        -1.65741280567027       0.58394624960842      -1.23956111297983
C        -1.04699352695464      -1.26968744812011       0.28762437100432
C         0.71162886489877       0.07730231825387      -0.83154870499660
C        -0.66076942320408       1.06288296709251       1.01987502678653
C        -3.08515186727962       0.54656023303559      -0.75798474416027
C        -2.48617849872526      -1.35668368856053       0.77238116783209
C        -3.46716403780843      -0.84966870817402      -0.28063077626450
C         1.88049442350991      -0.29257274345073       0.06626494458926
C        -0.23034525571379       2.48470390639517       0.72365475448204
C         3.17794721117411      -0.35957337748998      -0.74621689024150
C         4.37410467111703      -0.73391590955410       0.12385943308156
H        -1.51224574200178      -0.11796584173230      -2.07745255661724
H        -1.33540129647985       1.58131576088568      -1.57030574511753
H        -0.32799465166361      -1.56478008086616       1.06501735224923
H        -0.90368618118629      -1.91452302841857      -0.59493532469564
H         0.87154299545803       1.06481737319891      -1.28994606545986
H         0.61154160789073      -0.65021373201406      -1.65219210856048
H        -1.68890005378705       1.05265100497166       1.39910614579063
H        -0.01640930695217       0.59597534301828       1.77933596651322
H        -3.73319381785859       0.85346195229796      -1.59854043001500
H        -3.27743620637856       1.30250963919298       0.02201073287086
H        -2.60617726691661      -0.81253142171655       1.72534080418838
H        -2.67334114729979      -2.41890998357010       1.00835366431188
H        -4.49869131520028      -0.82151551037120       0.09847387865124
H        -3.47634355180541      -1.53400970589253      -1.14824932067275
H         1.71403423794259      -1.27252251328431       0.54341330242098
H         2.00705874230547       0.44777259613486       0.87386791775300
H        -0.30274976413907       3.05397568792636       1.66276717835586
H         0.80895052648783       2.55616175304084       0.37367719649555
H        -0.89235606279010       2.97651232728405      -0.00174274039041
H         3.35952008980381       0.61625767457017      -1.23172458262408
H         3.06378386214172      -1.09750128438963      -1.56025977019421
H         4.22709800415067      -1.71896592983647       0.59409100019446
H         4.52618846260694       0.00381004220366       0.92726677436031
H         5.29680806164648      -0.77881409092567      -0.47257810919001
B        -6.22990846668378       0.81892233016207      -1.75897832798777
F        -5.39518949953289       1.79577341085538      -2.41000164756857
F        -6.04267749481453       0.94981217926109      -0.33977711746210
F        -5.77391422093215      -0.47975772720565      -2.15902293132107
F        -7.57654120997438       1.00383173364749      -2.09734446872518
