53
C15H30F3NO3S optimized with ForceField in AMS.
N        -0.07330665616017       1.48450308897409      -0.01430266978441
C         0.52016750315284       2.42315291816362       0.98821224822616
C        -0.74009185243566       2.36585273407938      -1.02137801541392
C         1.01008410571384       0.69339153753500      -0.68451938521010
C        -1.08707595210991       0.61083728451254       0.66200195117899
C         0.00102113628106       3.81923702145489       0.70118791293532
C        -0.29559562283351       3.79368985390860      -0.77125287137211
C         1.75434330194726      -0.29314378337063       0.24770944839492
C        -1.77323808640505      -0.42056191380112      -0.26646268159244
C         2.97644069771104      -0.89373749546051      -0.45786611926961
C        -2.87947846916995      -1.17171932005171       0.48562125514974
C         3.70389547381707      -1.89225268696410       0.44996881470231
C        -3.58864780965954      -2.17950344404786      -0.42637821370862
C         4.90982513794069      -2.49995066313646      -0.25894909481794
C        -4.66331972053615      -2.94864075910992       0.33709198930898
H         1.63107963778235       2.47142947208725       0.91539904127904
H         0.28905533878813       2.14586292398831       2.04225537905776
H        -1.84986104592631       2.35365054251953      -0.92146466565137
H        -0.51653284284693       2.07957177926574      -2.07452211678404
H         1.75613253623093       1.39199830060838      -1.13044241436387
H         0.60036463740226       0.11725576461831      -1.54342428165056
H        -1.87758489590919       1.24924077629245       1.12134464185182
H        -0.62355545006978       0.06227623248241       1.51168770251216
H         0.75013013946620       4.60126991186895       0.95388129138305
H        -0.93606968300727       3.99959266529373       1.27336776075481
H        -1.08535530243149       4.52817425506512      -1.04220775981211
H         0.63080983043706       4.00888182313715      -1.34864897894626
H         1.07683812163368      -1.12402157668605       0.53596713514314
H         2.08963059712760       0.21861662869294       1.17407550712566
H        -1.03329959676159      -1.16576117926698      -0.62496013039195
H        -2.21619122376304       0.08389101526884      -1.15064546978043
H         3.67766249094191      -0.07732549368212      -0.73948127778590
H         2.64635688845847      -1.41221697065038      -1.38518659267534
H        -3.62534403418670      -0.44221673631311       0.87140953904496
H        -2.43131296367151      -1.70994266231777       1.35006665774786
H         3.00961679530347      -2.71029883582800       0.74199239276525
H         4.05026716413769      -1.37746395797887       1.37270016354691
H        -2.85004433807765      -2.90350412174828      -0.83456792344187
H        -4.06463004758788      -1.64410427780080      -1.27682348762352
H         5.41766417647931      -3.21952583925163       0.41717570716152
H         4.58466283098472      -3.04107828412603      -1.17298507168869
H         5.63305044860234      -1.70457994446863      -0.53960313584709
H        -5.16547529579208      -3.66572739072878      -0.34589205851982
H        -4.20785027279116      -3.51729783606860       1.17582829202267
H        -5.42606518370898      -2.24887003702756       0.74062100236335
S         7.25034145594179      -1.92081178981506      -3.96018021661905
O         8.02263666808811      -2.79757734806992      -4.95685371656286
O         8.36297390742494      -1.12376630277242      -3.26342157226887
O         6.81381212491790      -2.92400063023856      -2.88313830275574
C         5.91613362969277      -0.92257396819080      -4.68031971256744
F         4.95892503020817      -1.75553569242005      -5.22666235925348
F         6.43260080328811      -0.10701563359523      -5.66884362871575
F         5.33867847193978      -0.14289160492927      -3.69658418588127
