71
C21H29F18N2P optimized with DFTB in AMS.
N         2.99197380401572      -1.95169653158236      -1.17365516320138
N         2.49236269076403      -2.89073008158106       0.69949893014067
C         1.82509984029711      -0.67971713836481      -2.91679062456991
C         3.15967629951074      -0.93590781134156      -2.20788364251601
C         0.82018173235943      -2.32400314229433       2.42378935975660
C         2.10470952634828      -3.08709313143563       2.09437577926134
C         0.77605097825288      -0.07662365390769      -1.98002520000820
C        -0.36264931408313      -2.77013700588645       1.55957709737167
C        -0.56790526258130       0.09939309329266      -2.69392957901339
C        -1.62980566605312      -1.99727580599819       1.93776712373680
C         2.69342498813271      -1.71234957099087       0.10384278426498
C         2.96602362598546      -3.29835394561217      -1.39962033446593
C         2.65082597171363      -3.89056456537358      -0.21754445129539
C        -1.64637181107386       0.58456812343759      -1.72060153078689
C        -2.81988371441739      -2.42023337949194       1.07123256315661
C        -3.01653891532590       0.64091242954627      -2.39272675981261
C        -4.08035263705607      -1.64061190690860       1.43896676252790
H         2.01923143612372       0.00232409012748      -3.74899350433639
H         1.45605108039127      -1.62202420804260      -3.32803199843259
H         0.99095089590547      -1.25045611797675       2.29530413799792
H         0.59704052549369      -2.50275151491460       3.47977197037048
H         3.90212071627235      -1.30628234999305      -2.91878021369532
H         3.53655210239182      -0.02589593001310      -1.73284665891542
H         2.92654602095689      -2.74427847533705       2.73080392084956
H         1.96480127448558      -4.16073634192188       2.24111982277896
H         1.12889582084985       0.88979708341712      -1.60201219577744
H         0.63667840217910      -0.74087109872822      -1.11992496643312
H        -0.52816627355121      -3.84382134453679       1.69047215769902
H        -0.12894984095293      -2.59525523580794       0.50517081788281
H        -0.45759889864805       0.81637095588425      -3.51387619029509
H        -0.87334844922877      -0.85840901453277      -3.12529185880160
H        -1.44830941019102      -0.92352882700477       1.81194474575117
H        -1.86250234993139      -2.17426833829953       2.99369795780097
H         2.65109691598759      -0.74497775164637       0.57266964251416
H         3.15146888033886      -3.72574971369882      -2.36894643849345
H         2.50528922924679      -4.92764393833999       0.02776761412600
H        -1.69261526294362      -0.09800005006346      -0.86492045003148
H        -1.37912879340461       1.57695059785417      -1.34089714835489
H        -3.00016149598383      -3.49195509278879       1.19901324388719
H        -2.58082339991491      -2.24467878141284       0.01851093310039
H        -2.99796734651312       1.32185348921234      -3.24460185852658
H        -3.30634209732637      -0.34953222442798      -2.74489547811370
H        -3.76631115115895       0.99093879188719      -1.68288084518110
H        -4.90986408332075      -1.95776582868490       0.80712370890777
H        -3.92387613545072      -0.57029199847250       1.29509960482653
H        -4.35053366624666      -1.81508030350339       2.48148584318945
P         0.46776329513001      -6.11231716253946      -3.20845001309442
F         1.71699467061466      -7.22067455443651      -3.21508335248491
F        -0.25944543399484      -6.89445417215979      -4.47829287384603
F         1.19018103707772      -5.24009812077319      -1.90622213890420
C        -0.32796258503030      -7.30316275678321      -1.85950366738966
C         1.64047181518229      -5.02440263168797      -4.36976235864624
C        -1.05157928448657      -4.79309305229752      -3.25654053391394
C         0.43550457862870      -7.43022213716497      -0.50616949224482
C         1.62614546044636      -5.24655817167030      -5.90212481040695
C        -1.20345601011176      -3.77584417457776      -2.09922201735426
F        -0.40393582154237      -8.53790541693311      -2.37679580079074
F        -1.57646523552247      -6.94117400417886      -1.50700834030904
F         2.92063465793227      -5.22843716803868      -3.98429801240808
F         1.42923406838427      -3.70013681847316      -4.15576366993255
F        -2.22179041291372      -5.44921829213994      -3.33984697231128
F        -0.95934957778434      -4.05535882364404      -4.38438748179025
F        -0.05026746083745      -8.45094396487363       0.19987374002616
F         0.27582410154213      -6.32451934878879       0.23754993632887
F         1.74371024557652      -7.62261779706748      -0.64793059083056
F         1.99276098449909      -6.48766137860912      -6.19803895940345
F         0.43013750351857      -5.01911608158266      -6.42990413766642
F         2.49446175356753      -4.41109000783157      -6.48768715723116
F        -1.34793295679938      -4.37955417455243      -0.92220937256054
F        -2.26106150072915      -2.98139672466513      -2.28071977540491
F        -0.12983311359312      -2.97418356847246      -2.00203081027171
