45
C13H23F3N2O3S optimized with ForceField in AMS.
N         0.21916721149247       2.31972733300221      -0.20651461105360
N        -1.85712301199251       1.51577665285970      -0.18881124425940
C         1.61294619169043       2.51632864995302      -0.60887007371969
C         2.53841203995003       1.49032547123205       0.06482817438209
C        -3.04281752480266       0.75255706809341      -0.58116669195223
C         2.09783424365260       0.04972268454492      -0.22651937718426
C        -3.06261874451673      -0.63051920562999       0.08786257441685
C        -0.74110484127000       1.69994282816458      -0.92177235675059
C        -0.31112770975836       2.54458743898502       1.01286431504781
C        -1.59884471576054       2.04713509037872       1.02347734789062
C         3.06655151467603      -0.97381928564432       0.36717666511218
C        -1.85475201643259      -1.48257754400170      -0.32555041744510
C         2.56203444767541      -2.39640389415951       0.13422333439300
C        -1.89356728369620      -2.86561688869317       0.31397450626595
H         1.93566782872958       3.54329172497313      -0.33292286642089
H         1.70579790472894       2.42074478615111      -1.71313072558475
H         3.57243275701368       1.64356377442148      -0.31415962142175
H         2.54378933697360       1.66279186211309       1.16326785494516
H        -3.95510715846635       1.31662716778952      -0.29017111061107
H        -3.06631691961009       0.62632655963444      -1.68600867195180
H         2.02144976665268      -0.10433663053285      -1.32591093325513
H         1.10381838652086      -0.11342698754761       0.23112442584390
H        -3.99638752600891      -1.15403784726107      -0.21264405166871
H        -3.07706972898434      -0.50775939842613       1.19294454708998
H        -0.60103930948212       1.31513999396324      -1.92441358733837
H         0.21370365261570       2.99127758591514       1.84709553740653
H        -2.27741192173655       2.03445108847729       1.86627019105143
H         3.16825494066697      -0.80452136666882       1.46143411683721
H         4.06369319836779      -0.85725778515542      -0.10712173461142
H        -1.82735783324465      -1.59153798004563      -1.43157411156736
H        -0.92422870924912      -0.98437528772917       0.00196422400986
H         2.47514002875235      -2.60179825291323      -0.95416140829037
H         1.56777183587631      -2.53677169661988       0.61118849610795
H         3.27362850173750      -3.12306942841322       0.57898908292197
H        -1.89498062464937      -2.77776135159159       1.42145745453110
H        -0.99222634959469      -3.43829994176972       0.00758996199129
H        -2.79762299814450      -3.41888237948175      -0.01627611867546
S         7.80904893627954      -1.99808419014532       0.66615760267654
O         8.52425079342091      -2.98236168071748      -0.27056435941632
O         7.91220409758902      -2.68438817551960       2.03589796026119
O         6.33057186960059      -2.18128171573950       0.29698591332421
C         8.42025306928720      -0.28878458174363       0.60687616622315
F         8.26112841113894       0.21527262882336      -0.66941301958409
F         9.75938364077629      -0.26598214601827       0.94550067718177
F         7.70788830703489       0.48855410789317       1.49942893575063
