32
C10H18N2O2 optimized with DFTB in AMS.
H         3.01084083948734       0.28419491602299      -4.34401328875583
H         2.55118777123546      -1.30312177094169      -3.68972394932805
H         3.65526210693785      -0.24409143682741      -2.77071813191288
C         2.78466788927774      -0.26987793696991      -3.43222383683764
H         0.62697898720349       2.62494901740109      -0.65030623031805
H         2.37675029741907       2.36043476387283      -2.73901337136795
H         0.19132306957237      -1.15953615279659      -2.32390624121143
N         1.60997392963996       0.33440586165663      -2.80969571658615
C         0.87848121078180      -0.44747506232549      -1.84870327960940
N         0.18808301463072       0.54785465803720      -1.08014502633566
C         0.88313750398377       1.76744347459130      -1.24852939365510
C         1.72845457395161       1.64124771821077      -2.26923516171645
C        -0.44997339048878       0.21571393628740       0.18564564885351
H        -1.23685070225209       0.96170286841329       0.34991046622122
H        -0.92695333414295      -0.76322184961704       0.07443693798781
C         0.50460500404884       0.21083417735795       1.39080465517698
H         1.20597340400518       1.04557730784581       1.30320425435145
H         1.08391092125033      -0.71569627508540       1.40061058601114
C        -0.27640658707942       0.32508509832019       2.70311070179461
H        -0.84000547556954       1.26443694197127       2.71427865884504
H        -0.99683949846356      -0.49762737262936       2.77293935851461
C         0.66023183881573       0.28262305213647       3.90984999014438
H         1.36938579031877       1.11056133361915       3.87107978568261
H         1.22116526613265      -0.65311836557293       3.92500083931860
H         0.08638390383906       0.35882713977288       4.83392115350153
C         3.46275600434142      -2.14749384080421       0.32659448293170
C         2.81635585113021      -0.96867105646564      -0.37621019908379
O         3.25641849489055       0.14674891081418      -0.31870006468475
O         1.72847170180954      -1.35656187432466      -1.04081675985608
H         2.95979054335626      -3.07828231266157       0.07837947323280
H         4.51046031589287      -2.19637156424705       0.03521198506387
H         3.41495458794378      -1.97650011356245       1.40096144972729
