43
C13H27NO2 optimized with ADF in AMS.
N         2.08751850561974       0.22846356306934      -0.01745050378573
C         2.28331289787245      -0.90444864578132       1.00565374173316
C         3.23208025855681       0.03768798585488      -1.00216169990445
C         0.77152657027669       0.08578158983924      -0.76010081929988
C         3.72034548190895      -1.41320758204107       0.81206507549358
C         4.39682368782718      -0.41597503109409      -0.14270933192178
C         2.18435376274941       1.55552769104179       0.65128045286251
C        -0.45786058803668       0.17340899088196       0.12603476512515
C        -1.67863187754370      -0.37269452375622      -0.61983309354166
C        -2.95790048714735      -0.28729341348882       0.20982414905510
C        -4.17569960033292      -0.87547653778474      -0.50153227604732
C        -5.45225294869425      -0.78470858062322       0.33226811827830
H         1.53639095585880      -1.68897878747778       0.75026611447984
H         2.09465031264634      -0.47962825002533       2.00081333111626
H         3.37451439970428       0.96973171155755      -1.56764914606665
H         2.90438029889432      -0.80149709042209      -1.64068264647406
H         0.84732944204768      -0.91115198842410      -1.22626876836737
H         0.77460128319442       0.86932709947742      -1.53712407961038
H         3.66441288962117      -2.39411702776153       0.31677026122691
H         4.25572194910675      -1.51524138426028       1.76689057354021
H         4.87038318553974       0.42263803599170       0.39520955725434
H         5.17072783666240      -0.89338774534196      -0.76168300355042
H         1.39752779313340       1.62858519944656       1.41118980931476
H         3.16666756620031       1.64673763451762       1.13054045617879
H         2.05284317262157       2.34672515031638      -0.09924963022944
H        -0.30740224125759      -0.45206219443870       1.02195484180643
H        -0.65201284981591       1.21080815739280       0.45344700836597
H        -1.46642743532503      -1.42729718132286      -0.86862618779225
H        -1.81679780702078       0.17761531705441      -1.56993384744984
H        -3.16570880669553       0.76769503083316       0.47478430561984
H        -2.80315069963215      -0.82682953636998       1.16346134097617
H        -4.32454522645127      -0.35155157228974      -1.46375137276335
H        -3.96937082464036      -1.93166205955795      -0.75133031981362
H        -5.69212877075874       0.26354748652146       0.57610700627554
H        -6.31339018846202      -1.21160330870926      -0.20374858145401
H        -5.34231337873251      -1.33170858823132       1.28294889557374
C         0.89330936046165      -4.77916992011863      -1.60503549764966
C         1.12511393600526      -3.36432722104978      -1.06149797632096
O         2.03652373356582      -2.68194123547152      -1.63168802890961
O         0.39931510953744      -2.98310891324639      -0.09110969119897
H         0.70350872332884      -4.73524758399231      -2.68818971511737
H         1.80693600783751      -5.37855044216256      -1.46701461659444
H         0.05399511406783      -5.27198988365268      -1.09633447981339
