36
C10H17F3N2O3S optimized with DFTB in AMS.
N        -0.08216123816936      -1.08874112104635       0.46433454115838
N        -2.09681025036255      -0.33247510945599       0.56861050980349
C         1.22784664305316      -1.57399610515623       0.90040951520339
C         2.37260640351549      -0.83606311970762       0.20618643842501
C         2.36198919228327       0.66692299427048       0.50242469721078
C        -1.08655610443883      -0.80880212432902       1.28954620193873
C        -0.45893347643216      -0.78140999000171      -0.81596541867308
C        -1.72803860562760      -0.29993221088036      -0.74871573054590
C        -3.33383355224580       0.21498439102614       1.12397552925255
C         3.53943097812520       1.36879953582239      -0.16805662085197
C        -3.41657336815735       1.71006965760618       0.84205515382870
H         1.27574650091641      -1.41596327905230       1.98147567365129
H         1.28043907629716      -2.64706663191694       0.68741616623548
H         2.32849466688307      -1.01148508676221      -0.87380648853163
H         3.30405987655104      -1.27797093742277       0.57386316259956
H         1.42435417096574       1.10378289041963       0.14790603992153
H         2.40894163573938       0.81957968633891       1.58403604738075
H        -1.08249554305782      -0.93837965189299       2.35783191895629
H         0.18882468994710      -0.92657135198944      -1.66189680620902
H        -4.17757512905869      -0.32259276319310       0.67991297592421
H        -3.30924349778641       0.03563582159880       2.20110450644396
H        -2.38618960855495       0.05373864669118      -1.52264064257620
H         3.49794507187923       1.24380071916731      -1.25172188781379
H         4.48618031028425       0.96333593074805       0.19228487348349
H         3.50896869856170       2.43386898819011       0.06010085241928
H        -2.52747378332514       2.20654528142007       1.22726035631986
H        -4.29559290214014       2.11341887285019       1.34237431880822
H        -3.49698438697480       1.89938890493357      -0.22788358742612
S        -0.30502073151712       1.43113726279876       3.01384740075380
O        -0.29071067029066       1.94543607584920       1.65130455446586
O         0.70186138152252       0.40757009915772       3.26612337213965
O        -1.63438068200033       1.08293014604250       3.49508247862149
C         0.21740833398215       2.86383097587425       4.05706601425591
F        -0.62126069712878       3.88106342214111       3.89745999465252
F         1.43439560903785       3.26629714049415       3.70888932491907
F         0.23620595082375       2.53211545076626       5.34072498115443
