56
C16H19F18N2P optimized with DFTB in AMS.
N         2.20880699246468      -1.59348172264468      -0.30008927239005
N         1.40667047869512      -0.28364208822993       1.20640309068677
C         3.11030884219002      -2.15273330939110      -1.30245488310078
C         2.72514347679227      -1.67402908526896      -2.70406768576435
C         1.29234713320310       0.82194844694448       2.15196221130659
C         2.41616007635440      -0.45720417130479       0.35905992934966
C         2.91058373017513      -0.16238233041216      -2.86976008152737
C         1.03503176582991      -2.15207372242638       0.12630003890585
C         0.52951552870402      -1.32602724682018       1.08067041436637
C         0.41026245116757       1.93366504559216       1.57939358121581
C         2.60671369155427       0.28067025622650      -4.29916068776697
C         1.01204711086023       2.56192815053521       0.32476872489531
H         4.12357020818166      -1.83551270464315      -1.04698915304023
H         3.04563869670115      -3.24099297500432      -1.23538387558541
H         1.68657364835236      -1.95109523652941      -2.91133798166691
H         3.36495314627750      -2.20237901123954      -3.41650759815616
H         2.30194243065880       1.18617973052804       2.35543061851163
H         0.86132441962646       0.42484046767197       3.07385143399617
H         3.26414056758064       0.19336893022748       0.25243740298678
H         2.24352569908493       0.36460751803290      -2.17863034559418
H         3.93969167117530       0.10616726241371      -2.61297873742702
H         0.67040455711043      -3.08593164425799      -0.26422031190363
H        -0.36167634485022      -1.40057261377733       1.67871825763151
H        -0.58212170686090       1.52970287057944       1.35600065417363
H         0.29901435883451       2.69632872160311       2.35493123675751
H         1.57805167248877       0.03458977593781      -4.56649209604617
H         3.27716964427220      -0.21354761149895      -5.00284791435565
H         2.74150620992916       1.35834609423878      -4.38841319015793
H         1.08644434476801       1.82537856375878      -0.47654139337883
H         2.00830106789899       2.95171303335575       0.53247409418138
H         0.38007175208080       3.38097959006814      -0.01667271346485
P         5.72799936008085      -0.50427547561217       2.03100007396492
F         4.39590581812783       0.56110206079859       2.25505796646042
F         4.65581651236724      -1.52543048401844       1.16043308024712
F         6.76052769993373       0.50649993680027       2.86500702238690
C         6.06837365100360       0.55586354387927       0.40561276922946
C         5.14698377944975      -1.28206068379488       3.73587065972811
C         7.12491981441067      -1.84828870343092       1.62665278627215
C         5.59701637541936       2.03770450532016       0.38120070081270
C         3.88946194542539      -2.19136786079795       3.73644834507630
C         8.57927452060682      -1.70100420518854       2.15027162420696
F         5.47142431710617      -0.00383377966094      -0.68077847307250
F         7.38618546660489       0.57993215564024       0.16434216687638
F         4.86298914417215      -0.27252508441416       4.57744012522071
F         6.14162856044128      -1.98826647096244       4.29640618002684
F         7.20327778946569      -1.95650515527506       0.28405078643946
F         6.66693268776671      -3.03360654471890       2.07692901604920
F         6.16765336889643       2.68647858560978      -0.63282252010838
F         5.86637714094261       2.69481232205840       1.49567266672569
F         4.26520667558047       2.09364398315978       0.17546241006795
F         3.55269425284994      -2.52866771470316       4.98052733674973
F         2.83694744274727      -1.54493101791438       3.20582596357799
F         4.06553337983991      -3.30995065762693       3.04383708813909
F         9.29654728711388      -2.77568685075766       1.81641112635944
F         8.60608246069318      -1.58494638359966       3.47339345537405
F         9.17315907305289      -0.63386880665563       1.62617338925077
