64
C18H26F18NP optimized with ADF in AMS.
N         1.63032855820306       0.44856688935550       0.47671027265411
C         0.61164382230820      -0.59414360217198       0.88115103358997
C         1.73846435713814       1.30039888505103       1.73266425806644
C         2.98625198399918      -0.18431036702558       0.19439490236314
C         0.98257320625454      -0.96671102998814       2.31189241283460
C         1.62457967577887       0.31588759583503       2.90111537693294
C         1.12936766134890       1.24998480118425      -0.70241338080765
C         3.03551788463396      -1.10160190188083      -1.01251491693104
C         2.07889151494272       2.33690390019455      -1.16256068315105
C         4.45311737445585      -1.66162750688495      -1.17193856000838
C         4.58752901273160      -2.60014006875874      -2.36637120056181
C         6.01083149650269      -3.13460515583010      -2.52063947836393
C         6.16633757223125      -4.08293502980500      -3.70559913065313
H         0.62773964207263      -1.42016964429266       0.16034905551126
H        -0.36879144750006      -0.09531264293248       0.83612383073864
H         0.88943379127149       1.99961504500163       1.69804282391606
H         2.68622527995243       1.84924893907892       1.71578606331033
H         3.28069801307614      -0.71179855223344       1.10935473325616
H         3.68842716479669       0.64753346808299       0.08258066424760
H         1.69431794593246      -1.80463741137121       2.32758299966282
H         0.08985727811861      -1.28826972510501       2.86661665645303
H         1.00655031550665       0.75517500925430       3.69647760854532
H         2.61564795585721       0.11016727552167       3.32500590657120
H         0.92476073567199       0.52658012903913      -1.50527488039861
H         0.16713620783537       1.67555784336189      -0.37763898016619
H         2.32848349424376      -1.94408799661391      -0.90984069835313
H         2.76538222855528      -0.55650042276841      -1.93374384598403
H         1.58162988298472       2.91249241585050      -1.95786782398072
H         2.33986041620691       3.03461382997422      -0.35443264593502
H         3.01347029654784       1.93449581868063      -1.57452460493967
H         4.74429198081081      -2.19025358812949      -0.24775749892934
H         5.16325327932133      -0.82413606683437      -1.27345659754200
H         4.29451677720030      -2.06887624654454      -3.29232623602341
H         3.88649722600355      -3.45030395563449      -2.25720647034939
H         6.70350076221007      -2.28050537882640      -2.62912384870823
H         6.30355008274099      -3.64887152283765      -1.58750363939473
H         5.90379652467922      -3.58039367598827      -4.65066746880059
H         7.20041945019604      -4.44849434695857      -3.79636014910664
H         5.50748684193880      -4.96023094959298      -3.59816906990118
P         6.32467685063988       1.08962747531284       2.08386762643037
F         4.68617560370569       1.11380342276438       2.52424366293870
F         6.69815565125068       2.27040591974857       3.17669358017122
F         5.95160163342619      -0.10409472306824       0.96804357946640
C         6.45296204186908      -0.23966127810738       3.53871303802805
C         5.77659078129049       2.55526759260363       0.74714652644510
C         8.20128389274680       1.04841819358594       1.35630708585867
C         5.82445714124943      -1.65559894637092       3.33706877233605
C         6.60776191189089       3.83761051226107       0.39561224371078
C         9.28490493439530      -0.06027400437249       1.58737042911031
F         5.81095841850989       0.26092796858932       4.65414054744398
F         7.75242571630248      -0.47149748641991       3.92120326735356
F         4.59466147458069       3.12668289000613       1.22175871951452
F         5.44645030723475       1.99616999078245      -0.48239114712415
F         8.83889110201222       2.22194388303251       1.68935043428549
F         8.03060294465063       1.03972219695843      -0.01821458841078
F         5.96844343371647      -2.38010056172827       4.48025216580202
F         6.39561797577389      -2.35638263655514       2.33595693031101
F         4.48127501184677      -1.58379277316636       3.08156915536553
F         5.81387621768107       4.66279547376561      -0.36064638084599
F         6.95358503003460       4.51234164302492       1.51230659307677
F         7.71109704328616       3.59286376922461      -0.33602319818552
F         9.93522326228880       0.09884061056846       2.76037594171082
F        10.22480713291370       0.02819668409882       0.60254873599282
F         8.75505022294324      -1.30452130399603       1.52696338525050
