32
C8H15F6N2P optimized with ADF in AMS.
H         0.02778980291576      -1.35697233689573      -5.30714506373064
H        -1.46404646648421      -1.62317821562180      -4.36448542183357
H        -0.41737175411337      -3.02724308535118      -4.75204822038072
C        -0.43221162552552      -1.95788315827639      -4.51223387300599
H         2.85688155874332      -1.96330447152633      -1.22798029587622
H         1.83562125119144      -3.26519972790034      -3.47206617895603
H        -0.62165175722061       0.05244664981948      -2.54875626667063
N         0.31964498908254      -1.74411626867765      -3.27839571201866
C         0.13083160598059      -0.71887992326330      -2.43948440389436
N         1.11941622079008      -0.72672075980410      -1.53793376813337
C         1.97172289865769      -1.77087191723283      -1.82039494831149
C         1.47195524187596      -2.40944914287190      -2.91807239306345
C         1.30874484351112       0.30475157031954      -0.50672285742014
H         2.29462963554912       0.11819865373670      -0.05720200654946
H         1.33753809740740       1.26892421351081      -1.03703949531800
C         0.20516906261162       0.26298860212569       0.54164421702331
H         0.17623886521600      -0.73973299398864       1.00524789539920
H        -0.76912227008338       0.42123368827800       0.04692851556882
C         0.39945214911829       1.33230755272003       1.61401574573530
H         1.38093539106821       1.19052819316991       2.10113785656691
H         0.42692230345637       2.32591903399332       1.13309658938957
C        -0.70699751582201       1.29478875891520       2.66521486636033
H        -0.73642673537941       0.31687764047941       3.17304026982009
H        -1.69302166173199       1.46458581966694       2.20349339408704
H        -0.55606181136655       2.06935729772689       3.43113951461815
P         0.80976511998865       2.01781467649924      -4.45289917256612
F         2.07617132683016       3.00851699632830      -4.14880516048911
F         0.33727418189755       2.12998994634136      -2.83149651238577
F        -0.16043577065213       3.28197616868959      -4.81478628725457
F        -0.48599656247837       0.96431780623478      -4.68648404653930
F         1.24430756834827       1.83027629506123      -6.02002298511722
F         1.75569411851743       0.69486937269375      -4.03993220135390
