43
C13H24F3NO2 optimized with DFTB in AMS.
N         0.48318401230934       0.03907888173290      -0.02168090036649
C        -0.20408871146453      -0.17479132599180      -1.34189595770951
C         0.75946799089221      -1.30089944349729       0.60959112423184
C         1.80305158106515       0.69434503339181      -0.34551570951150
C        -0.32955634103629       0.87362709973289       0.92169695123637
C        -1.46759626092587      -1.01616006249947      -1.23396142033694
C        -0.47395984327383      -2.18671059189442       0.72090009071400
C        -1.12581683461493      -2.38252887683200      -0.64498819712076
C         2.66563884516732       1.06881299355135       0.85664054852950
C        -0.64835405601585       2.27719082643343       0.42731243182410
C         4.11065197876560       1.26230816862140       0.37589224982989
C         5.03257257277808       1.64051986438434       1.53215723024598
H         0.51763612971161      -0.70107645910438      -1.97536715494400
H        -0.41445217398738       0.80501822315072      -1.77351343038133
H         1.18179898773486      -1.12065880550553       1.59954403681225
H         1.51220879362264      -1.78449698016284      -0.01710079887190
H         1.59064940198249       1.57762667220360      -0.95158051687681
H         2.34799768781657      -0.02955506777800      -0.95743141440968
H        -1.26063564789750       0.33789962947665       1.11505300454697
H         0.23189567651962       0.93028378468634       1.85730897225645
H        -1.86377148496239      -1.13472276366875      -2.24586726033342
H        -2.23161086852722      -0.51368941221638      -0.63185713340088
H        -1.19537999831951      -1.77012294196189       1.43184070133903
H        -0.13933486511034      -3.14986349557480       1.11480569740267
H        -2.02909377913721      -2.98891201572259      -0.54687026251919
H        -0.42523318418874      -2.89588119225886      -1.31045687002939
H         2.65397424969790       0.27460149840765       1.60675455537934
H         2.29913420306949       1.98631518251800       1.32826596238872
H        -1.22459007127394       2.77752394664280       1.20567840528269
H         0.25362907808407       2.85823917130436       0.24552211275765
H        -1.24839669385969       2.25957302760068      -0.48066870066597
H         4.13839357557203       2.04565333210327      -0.38873203802858
H         4.45470378672116       0.32924008935564      -0.08126704398636
H         5.02799773018778       0.86078124966743       2.29485350670823
H         4.71243084432569       2.57770600448184       1.99071768442200
H         6.05190394712776       1.76189338375306       1.16604352769319
C         2.87651411634663      -2.35536589448858      -1.94548620445120
O         3.43752917950488      -1.76938081736809      -1.01468716406023
O         1.68077338710480      -2.38339965833773      -2.25101259553712
C         3.84599912968686      -3.18460649965683      -2.90853133118009
F         3.21238389145271      -4.18473272884332      -3.53856121633932
F         4.87936661425432      -3.72732336600012      -2.24727762742033
F         4.36639730799373      -2.38681415233648      -3.86317510671991
