28
C6H14F6NP optimized with DFTB in AMS.
N         0.86339060999968       0.45448081273035      -0.00618758237460
C        -0.40184252382827       1.20455698712732      -0.26742345534048
C         0.42009947891611      -0.73396637253432       0.78730569083552
C        -1.46335974151818       0.12959272343301      -0.49913339856664
C        -0.91665998616850      -1.14025813888693       0.17615166026787
C         1.83825705003904       1.27122377438843       0.76261177027143
C         1.48252684948778       0.02531261785993      -1.29147854469501
H        -0.26091204431551       1.87225203032410      -1.11769514601196
H        -0.62940407661846       1.79600719609135       0.62235288492264
H         0.30043311661030      -0.41101017980994       1.82371758383540
H         1.18620355697182      -1.50672366854167       0.73472318459511
H        -1.62094361620757      -0.03659373438878      -1.56657866898259
H        -2.41338550320370       0.44053464382091      -0.06146537214613
H        -1.59190874283353      -1.50393949808573       0.95207970817087
H        -0.78239627795753      -1.93848826679553      -0.55645540700878
H         2.17990511956804       2.09227645092533       0.13600624197849
H         1.35264507303242       1.65588204883739       1.65737478755479
H         2.67982298440988       0.63940786415430       1.03494020554055
H         0.76939123368193      -0.57291350775606      -1.85303726489407
H         1.75697766380743       0.91255618375320      -1.85850194757889
H         2.37382396190780      -0.55644983443705      -1.06856820156722
P         4.80315496312578      -1.05442598694785       0.52333543929067
F         5.22813913673716      -2.28788906554782       1.48965609979341
F         5.08495158514979      -1.93916249899309      -0.81831725645486
F         3.19815972153843      -1.62532569900464       0.52232549291227
F         4.27327462687539       0.21529927503589      -0.45246365293892
F         4.40184812904454      -0.13124768616925       1.84608757359734
F         6.30546088544793      -0.44569218598283       0.51533169229379
