43
C13H27NO2 optimized with ForceField in AMS.
N        -0.83764146847182      -0.20880226981783       0.01105218030183
C        -1.15152004281072      -1.25604546300406      -1.00976302086821
C        -1.99415957697127      -0.23353479990373       0.95771037300795
C         0.41773881121411      -0.56705087201405       0.74900325110151
C        -2.57632954045338      -1.72842452602730      -0.78876421228596
C        -2.81413161504463      -1.47635088801606       0.67299409683406
C        -0.74651448176158       1.13047900030362      -0.65725580484187
C         1.70012193176776      -0.53210628423417      -0.11716033970402
C        -0.39705980854104       2.29801341706654       0.29681646858034
C         2.90163809851267      -1.08466229393652       0.65776459380223
C        -0.49821896669079       3.64166456004503      -0.41955499309027
C         4.17166770287221      -1.03210076961196      -0.18717275982194
H        -1.03309021907647      -0.89785206751367      -2.05781543157067
H        -0.49684624242734      -2.15221202752716      -0.91037456943622
H        -1.68752073822626      -0.21948863532405       2.02824437366048
H        -2.67268914080972       0.63902037712138       0.81413660568364
H         0.31204851238975      -1.58727086656118       1.18622720093002
H         0.56695399075492       0.11073208041964       1.61868371351094
H        -3.27670227759392      -1.11483205024556      -1.39777906075950
H        -2.70342932482361      -2.80333972925641      -1.04353243412123
H        -2.42870310554730      -2.33013664459672       1.27277460338406
H        -3.89356180327077      -1.32229712109749       0.89097223117984
H         0.00720256173738       1.10875239980308      -1.47556117280864
H        -1.71534586766121       1.36149984512455      -1.15845240096032
H         1.56402892210443      -1.12891963881598      -1.04313192739055
H         1.93136034605435       0.51291404931958      -0.41011347233001
H        -1.08027129786932       2.31401968358099       1.17099352762018
H         0.64171734133824       2.19463310726060       0.67196970138299
H         3.05906391131494      -0.48524995019048       1.58098925456476
H         2.70797980692928      -2.13964657399895       0.95019928701311
H         0.20432336479189       3.67405073362333      -1.27944908166669
H        -1.53398359012921       3.80920878685073      -0.78387718304821
H        -0.23419681548501       4.45903381313597       0.28441997507977
H         5.02707926859121      -1.42653887981310       0.40052577527432
H         4.05232281138097      -1.65173775907244      -1.10140578038362
H         4.39697420401126       0.01518237917495      -0.48164589603399
C        -2.18123706909968      -4.26806019570834       4.06129713134986
C        -0.95049333504647      -3.46152207412609       3.79034639342169
O        -0.90423834134967      -2.28363488932448       4.10587426350807
O         0.01264147681389      -3.98227895123612       3.25174224516257
H        -2.96300340540102      -3.64232211774355       4.54270003794794
H        -2.58165694175582      -4.66999971225641       3.10698090391589
H        -1.93263296516120      -5.11311297845613       4.73732901790388
