32
C10H15F3N2O2 optimized with ADF in AMS.
H         2.40555956595254      -0.10918148491481      -5.00658759926793
H         0.66866424002994      -0.53993731530962      -5.11889722205004
H         1.77499994809501      -1.52249633405219      -4.07602283495284
C         1.54757763589440      -0.51646085143108      -4.46177377151823
H         1.85056495108681       2.59566513750087      -1.01701679753825
H         2.72511793218031       1.91202498660909      -3.56953729718763
H        -0.06654599885433      -0.97324980282317      -2.25391141703685
N         1.28251078168320       0.33176124394595      -3.30671045132788
C         0.48042084253440      -0.03991654698051      -2.29922728545638
N         0.60249864977547       0.86128005307714      -1.31540389777438
C         1.55372284122345       1.79257344070020      -1.67899333254317
C         1.97995880856875       1.45763884511934      -2.92999934404585
C        -0.00565366281670       0.72831121453047       0.01324298786700
H         0.02123726335831       1.72788023571433       0.47496710096403
H        -1.06399524215645       0.45746519383552      -0.12995930040672
C         0.73035514203413      -0.29947256792186       0.86528727665298
H         1.81073461220175      -0.07587016481780       0.84137648564757
H         0.61662935197546      -1.29689458487599       0.40787361690688
C         0.20765755125259      -0.31456268974393       2.29928059845242
H         0.30817642907390       0.69610944686944       2.73790282458874
H        -0.87341539369703      -0.54904470068299       2.29729561551153
C         0.95213639208192      -1.32788128320156       3.16661271162838
H         2.03019617714463      -1.10456930209105       3.18964550731361
H         0.83710706762156      -2.34627947620234       2.76678268553461
H         0.57790110017439      -1.31716771926585       4.20171737488088
C         2.47714321775983      -2.15279640517115      -1.36493164695314
O         3.03913483293439      -1.03820624816727      -1.38936134572217
O         1.41724986801452      -2.55727473795187      -1.92590255084021
C         3.14363025485982      -3.23220132401854      -0.44612010425446
F         2.43081617009365      -3.35405983831416       0.73114214643551
F         4.42359503717852      -2.92378295490439      -0.09423160214640
F         3.17326850274085      -4.47122931216022      -1.02026739376161
