35
C9H20BF4N optimized with ForceField in AMS.
N         0.26517680669804      -0.13598046852113      -0.18098938853321
C        -0.58963283356382       0.69478743435859      -1.08930349478699
C        -0.50556276096412      -1.35629925637136       0.22438386797303
C        -1.95445796521016       1.07627844227020      -0.49263819575682
C        -1.88602449819386      -1.05110534456632       0.84031927120989
C         0.68334730972872       0.62478037921816       1.04823180592900
C         1.45422891151421      -0.56793272582889      -0.99244935225446
C        -2.72686379503823      -0.17301440141152      -0.08180565675097
C         1.57461065686567       1.85505997886149       0.80141814162599
C         2.52657096100480      -1.37190845791730      -0.23373059430158
H        -0.79456624805653       0.13900999975514      -2.03495372556955
H        -0.06540155831521       1.61933026444123      -1.40343850561840
H         0.05833699434616      -1.95106568084152       0.97413452571268
H        -0.67181829864280      -2.02214936090489      -0.65387415938549
H        -2.54281416106798       1.62206076705278      -1.26165310883708
H        -1.83910801675767       1.76535255739776       0.36889895705765
H        -1.77885267309309      -0.56984205631121       1.83445241704593
H        -2.42425898072919      -2.00950075519540       1.00592322039098
H        -0.19516032150690       0.98406768013947       1.61826018646399
H         1.21601890411047      -0.04547312994411       1.75736196507485
H         1.12563492404182      -1.19681580039638      -1.85177303103892
H         1.95281070421830       0.31009738662973      -1.45975629402181
H        -3.66167455350839       0.12398182193545       0.43964829526941
H        -3.00782781125438      -0.75133672123344      -0.98915760742075
H         1.84545766867586       2.30318856548701       1.78021542153468
H         2.52191443830113       1.59366659055988       0.29078398543924
H         1.03761835596957       2.63277541433160       0.22859433361687
H         3.32644503668118      -1.66078130173028      -0.94732034315005
H         3.00536952645490      -0.76971650258935       0.56360764367014
H         2.11433687505551      -2.30694058600539       0.19372861269202
B         0.26007319575674       4.90199898904103      -1.49109843807893
F        -0.87086262770721       4.26247313911299      -0.91714719099989
F        -0.17323411135378       5.93756868020186      -2.36014150533791
F         1.02017462062873       3.95421431249565      -2.22711728855248
F         1.06504056141149       5.45376282167850      -0.45905206831103
