50
C14H15F18N2P optimized with ADF in AMS.
H        -0.15986813030581      -3.20178028558429      -2.26526297286244
H        -0.07223152763394      -3.46057871287675      -0.49504756057086
H         1.36622856190863      -3.80869078705508      -1.50262676221302
C         0.49131015839590      -3.15725125060563      -1.38386742761228
H         2.52686552405168       0.98502838889879      -1.93729666104951
H         1.68503993119523      -1.35733091542933      -3.18515999366813
H         0.68161807981409      -1.53452714156700       0.91930467252818
N         0.95361891827047      -1.78404216748179      -1.20181978945651
C         1.01817788966170      -1.14090398983353      -0.02894045799851
N         1.63188961011050       0.03190345532414      -0.22369853095926
C         1.98768262308672       0.12835790469597      -1.55322172080969
C         1.56622096643555      -1.01327485099588      -2.16574847842685
C         1.92983816016532       1.05643970753013       0.79566254207718
H         3.00136242954817       1.28114302443771       0.68924815782704
H         1.34590489883857       1.95376159750456       0.53390246245271
C         1.63382670787345       0.59593189561125       2.21215941525780
H         2.13372627701569      -0.36835410745349       2.39141308006963
H         0.54613110283991       0.45207371173546       2.34880814180582
C         2.14656890913897       1.60921645684718       3.23716782717316
H         3.22448907030398       1.77447500498129       3.06188700490109
H         1.64393618694379       2.58225693905926       3.08873399864476
C         1.93426955592797       1.12160537871563       4.66794360598494
H         2.46294499561658       0.17005667458810       4.83589652925649
H         0.86530371039304       0.95833193484317       4.87897743913453
H         2.31392245784021       1.85335624656349       5.39636686088384
P         4.69950390970835      -3.36873914640998       0.46794192737228
F         4.14788920068687      -4.93941481754970       0.44512258516110
F         3.26008077021889      -2.86715592597699      -0.27398012488785
F         6.12582594554261      -3.77542269612059       1.20524343467967
C         3.85108476403115      -3.22716917793123       2.25980808026430
C         5.50253670496300      -3.81262678178846      -1.29087767804136
C         5.21091477941261      -1.42367487492235       0.42126330961800
C         3.55967784809606      -4.54811254687146       3.04587824424372
C         4.55879773241329      -3.97333343199469      -2.52224622907571
C         6.61134298629453      -0.92871540746546       0.89689163845631
F         2.59589697745695      -2.60964301057524       2.20724019709630
F         4.62129708192076      -2.47190727267948       3.10993948312649
F         6.13809806764659      -5.02665430527500      -1.16757316079723
F         6.46734455800390      -2.91925074710848      -1.70232164671691
F         4.31112482285432      -0.69489964758834       1.19853858447678
F         5.04675211387655      -0.93100805641999      -0.85848885742237
F         3.18306749030837      -4.22170961304205       4.32006386894557
F         4.63759701668111      -5.34897403089544       3.13070742829803
F         2.52862019458309      -5.23864986761055       2.49708988932935
F         3.52594253893250      -4.82266584132938      -2.28547567920151
F         4.03297485145958      -2.77768694234600      -2.91462225027447
F         5.25639384803189      -4.46837140309199      -3.57853962752884
F         6.79756028496250      -1.15718369518660       2.21378605206324
F         6.68731824475161       0.42791638938106       0.70219807154710
F         7.62040293772653      -1.49531412975497       0.21069834609787
