41
C11H22F3NO3S optimized with ADF in AMS.
N         0.28512117945335       0.00543272266594       0.36503305952469
C         0.16410306124564       0.91110350778561      -0.85503008719494
C        -0.61365149330118      -1.19642136103777       0.17208753969412
C         1.74045247219025      -0.43570242138173       0.41974346371019
C        -1.26724280258509       1.32693635991298      -1.13981690407366
C        -2.06347744471177      -0.82379502120124      -0.10577699158436
C        -0.11771728312264       0.72677611685344       1.64307976449439
C        -2.18119575972901       0.11200311217492      -1.30909005802727
C         2.12685009926764      -1.32055311983889       1.58967746682696
C         0.79491985539437       1.85845600233747       2.06160890314785
C         3.63459686095371      -1.58493143182228       1.52494535457353
H         0.55978795775362       0.30998055003949      -1.68994184577910
H         0.86146242724827       1.75135641092544      -0.70334704133547
H        -0.52129995440587      -1.81935177724607       1.07203476144413
H        -0.18956375898115      -1.75067330410621      -0.68058932521141
H         2.34543096676500       0.48024331946961       0.38522147460051
H         1.92665348811997      -0.95115083800945      -0.53578284730792
H        -1.24820119171855       1.93168510167990      -2.06092341669222
H        -1.64735432948369       1.99527184068521      -0.34856587196472
H        -2.52197475605717      -0.36734657872282       0.78755165162576
H        -2.61319465291783      -1.76318373971097      -0.28506177427516
H        -1.13671051150597       1.09428488762706       1.47607397526644
H        -0.17107700286906      -0.05490913644587       2.41587600752884
H        -3.22805926523736       0.42573949123411      -1.44709334965623
H        -1.88710857744211      -0.43668703030426      -2.22244980077138
H         1.89135274897147      -0.82816581525510       2.54745876607371
H         1.58023603475668      -2.27907096574775       1.56719909548557
H         0.33395582556625       2.35054666841878       2.93198368531821
H         1.79406221908646       1.51176027140046       2.35557568012471
H         0.94177196997863       2.60723627081967       1.27373274621949
H         3.94983700457546      -2.22343488380561       2.36221134140463
H         3.90780306903491      -2.08590688875977       0.58402588283416
H         4.19544438736239      -0.64040200272272       1.56343649807366
S         3.98099598274253       2.45556341088102      -0.63408024773384
O         2.60810183954051       2.84173935367135      -0.21083791161698
O         4.61253651802176       3.33601877692788      -1.61365533226544
O         4.13965811131908       0.99984583559981      -0.83695078378885
C         4.97677528593457       2.74021843228233       0.93669862726136
F         4.45534109007757       2.02068590356321       1.99077094400552
F         4.98299637048141       4.04576894679930       1.30987241568935
F         6.26562551112693       2.34215555136353       0.78195846125117
