44
C14H26N2O2 optimized with ADF in AMS.
N         0.38987737134233       2.53759597490643       1.16257766427037
N        -1.49092307994425       1.96969559720723       0.27392010961995
C         1.82130828680197       2.85284676198803       1.28206776829483
C         2.60856702143205       1.62587789665151       1.73827159455699
C        -2.44390446721277       1.54421730541578      -0.75672695230531
C         2.53184765264975       0.48225962706176       0.72855547889994
C        -2.38979394113471       0.03484052476306      -0.98794803283210
C        -0.23401601554673       2.35579934764172      -0.01204259797901
C        -0.47469612335888       2.25452151274630       2.20504882845540
C        -1.66552795228413       1.89302276600496       1.64273938044740
C         3.37572196700807      -0.72635131452360       1.12449423504410
C        -1.03574273012477      -0.45220192575182      -1.50436872456817
C         3.28376754264330      -1.85213250193357       0.09563146160602
C        -1.04589580958102      -1.94011785730206      -1.84276430314810
H         1.92156151225826       3.69638633380831       1.98236339193454
H         2.14459502315846       3.14592398405214       0.26574846597475
H         3.65872224130628       1.94382667243097       1.86333383519790
H         2.25815890111861       1.29031874853669       2.73297244207122
H        -3.44513233077934       1.87486357096045      -0.44130624370680
H        -2.16614466917087       2.08449649084067      -1.67423557358724
H         2.84171996010719       0.86676436464945      -0.25952659011549
H         1.48087874562945       0.15866048467286       0.61921407036318
H        -3.17869807233603      -0.20664858303661      -1.72305445793928
H        -2.65657497282218      -0.49191411821338      -0.05267306311378
H         0.17712283536751       2.42301409903863      -1.10821780951615
H        -0.18061338067964       2.35099841558043       3.24306774177622
H        -2.60991683988649       1.61184753930615       2.09278597487343
H         3.05216786519069      -1.09706656794691       2.11530840385898
H         4.42967886554608      -0.41355380855645       1.23781175914586
H        -0.73898885983298       0.14723369145736      -2.38246926877203
H        -0.26006692563979      -0.26033727913151      -0.74456773681938
H         3.63995240986637      -1.50793002228436      -0.88837702309809
H         2.24058760735344      -2.18616675910350      -0.02706221370219
H         3.88659562487353      -2.72429941198745       0.39158840155332
H        -1.29944956714483      -2.55102136753699      -0.96075086481932
H        -0.06018798756458      -2.26569726888786      -2.20794072497586
H        -1.78542327339464      -2.16237666866960      -2.62913627526812
C         2.31696301912389       2.22822486749697      -4.10995528840479
C         1.73903456592156       2.43123293340101      -2.70988950935091
O         0.46143543896495       2.31252549309483      -2.61930300382787
O         2.52516102655728       2.68294302169086      -1.76000290382511
H         2.16770710388058       1.18236560851497      -4.42099606510703
H         1.77930340421126       2.85876722443017      -4.83360139322599
H         3.38896119502576       2.46338125721597      -4.13052383913628
