17
C5H9ClN2 optimized with ADF in AMS.
N         1.19674641273502       0.03602316637695      -0.32714849816505
N        -0.97228580940823      -0.16664297131421      -0.10529412418619
C         0.19894987532662      -0.85532176246137      -0.08982908203806
C         0.66705354037144       1.31635099670649      -0.22627294188883
C        -0.67742824933754       1.19056020101660      -0.08918729860883
C         2.59361622769951      -0.31659996061701      -0.14357119915400
C        -2.21466434212885      -0.76407619308556       0.35218818355444
H         0.27829535371577      -1.91711786754387      -0.28309178964292
H         1.29215377589767       2.19745134686748      -0.28221506447789
H        -1.45203870414589       1.94065286288676      -0.00081995988466
H         2.86811560825705      -1.12642232790632      -0.83227220717991
H         3.21413952383198       0.56136560803317      -0.35516881788924
H         2.71905890763020      -0.64934766471244       0.90039749277291
H        -2.06084016935026      -1.09556380309054       1.39278576500426
H        -3.01383860507857      -0.01680695046410       0.29015380703864
H        -2.47373952736050      -1.62180115451910      -0.28230300004259
Cl        0.49623012084460      -1.44948752957293       2.27184181638791
