28
C6H11F2N3O4S2 optimized with ADF in AMS.
N        -0.72815129328475       0.09612491240002      -0.17279843945662
N         1.24864576518077      -0.36751322281834       0.59940288594236
C        -2.09020107623391      -0.09843761068040      -0.70182961102563
C         0.18153333848463      -0.87308765444696      -0.03034755345623
C        -0.23926728473864       1.24931879586316       0.40773396028187
C         1.00016368238460       0.95783575590727       0.89407475595530
C        -3.11836749336487      -0.21213393854355       0.40996122277865
C         2.38086489691326      -1.14984975263762       1.08705427747728
H        -2.29213759005499       0.74572684551058      -1.37876593145269
H        -2.05649238712129      -1.01347494718152      -1.31054856260463
H         0.06057901157234      -1.90165407869512      -0.34062723539072
H        -0.82107428981159       2.16095412355949       0.44979492821411
H         1.70973228903596       1.56069133489855       1.44652132314579
H        -2.90837605077622      -1.06459386043635       1.06902885630923
H        -4.11316461732263      -0.35011199261263      -0.03879770654918
H        -3.14053123233328       0.69372351705237       1.03184085606759
H         2.35671640665314      -2.13475332031414       0.60829324285154
H         3.31450455075701      -0.63512118569671       0.82963295390670
H         2.26849153850555      -1.26713980850581       2.17474093927677
N        -1.48180193890326      -2.04295176653194       4.52638894779835
S        -2.93917454495607      -2.67589180185128       4.18381979579385
S        -0.57839452187478      -1.50305135832943       3.35401672439433
F        -2.53324850487150      -4.13822644841350       3.53300147487554
F        -1.25745375509047      -0.01885875597427       2.95916294971941
O        -3.58183698719530      -2.99231557421383       5.43714481343935
O        -3.66242765739231      -2.00541734796955       3.11567745060614
O        -0.64322673553480      -2.22843873823469       2.08212339158821
O         0.73124364127342      -1.12185852590379       3.86323472471334
