42
C12H16F6N2O4S2 optimized with ADF in AMS.
N         2.49555137508895       0.63694268336687       0.00982022486165
C         0.09232141909283      -0.00435444021819      -0.05944121460705
C        -1.12853209624752      -0.14138417020928      -0.96823327533391
C         1.29808368832522       0.48550907278140      -0.85155324048769
C        -2.36436423690861      -0.65607047936890      -0.23151309119936
C        -3.57207505783853      -0.79159651631230      -1.15520313787073
C         3.09362015239548      -0.47747991795045       0.48316325062297
C         2.98599574033935       1.86207040773819       0.29073384003860
C         4.19936365504244      -0.38549416846010       1.30189834615171
C         4.09844683177815       2.00235143262163       1.09854341680040
C         4.71175988844549       0.86836951461258       1.61768409620498
H         0.31740481488692      -0.98165267730375       0.40327164081891
H        -0.12083234602760       0.70058411196419       0.76436654798359
H        -0.88751634227411      -0.82642542849364      -1.80160807235037
H        -1.35765080815952       0.83808213375034      -1.42636723704874
H         1.59328168526138      -0.20361609771303      -1.65683372887417
H         1.10780876754102       1.46546011854711      -1.30573094340731
H        -2.60573194737211       0.02967799001565       0.60086607252743
H        -2.13402075693457      -1.63525179247623       0.22569195397479
H        -3.83599548169350       0.17927850655679      -1.60356475675903
H        -4.45264802765396      -1.16297893589005      -0.61025638149742
H        -3.36161253820293      -1.49348085552716      -1.97767018420050
H         2.67923915964891      -1.42330167597994       0.14371558980637
H         2.47139624717754       2.70312091333999      -0.16688345611136
H         4.68456708150959      -1.29976062498144       1.63935303630394
H         4.48923359706024       3.00107841648061       1.28953333092623
H         5.60775511841292       0.95797363483831       2.23260743068926
N         5.11092927710294       1.39301156907089      -2.85101339950790
S         4.50328367417364       1.89610150751699      -4.26141945335177
S         5.05808281767901      -0.12538443723036      -2.34706744775971
C         2.71094956250040       2.37515991235996      -3.85507286167405
C         6.13466684708737      -1.19308265098535      -3.50825191889379
O         5.09983454718182       3.18584217838335      -4.56305031757260
O         4.36364868301369       0.86550466473048      -5.28149174659550
O         3.73808930817102      -0.77782784836522      -2.39251966626196
O         5.78923633873172      -0.16359182458585      -1.07914190901306
F         2.22306254851670       3.19378339354672      -4.81193892047774
F         2.62527030491164       3.04394689674941      -2.65718494797916
F         1.89438333657380       1.29234020308655      -3.77248048865808
F         6.64488214989890      -2.21779446142148      -2.77413943050950
F         7.15920720081475      -0.47329327486310      -4.01107331913001
F         5.41772646964912      -1.71645185212217      -4.51826450987839
