33
C9H15F3N2O3S optimized with DFTB in AMS.
H         2.40171141867536      -0.21809138041681      -4.12194310775575
H         0.66121274005594      -0.51138919951145      -4.39749121828821
H         1.80314123639440      -1.88470186784030      -4.36958507883814
C         1.57230412043573      -0.90788496021764      -3.95058166147072
H         1.93984375460548      -2.21475966035678       0.46317932553709
H         2.18120828028894      -3.00158622060031      -2.18297987933592
H         0.70123465597175       0.94034333350202      -2.03949390326445
N         1.39587413422175      -1.03646698060198      -2.51410619634262
C         1.05307084974512      -0.02355424635024      -1.71836649390248
N         1.20395001660392      -0.42402528321091      -0.46091103092835
C         1.69583255231819      -1.70299674309603      -0.45051291826891
C         1.82138134611515      -2.08711384040114      -1.74598463351572
C         1.08365033533550       0.43314395692836       0.71189887426673
H         2.05876646954603       0.43369178312760       1.20850355724716
H         0.86782715775743       1.44493292801010       0.36072261609059
C        -0.01882857499240      -0.07102107384867       1.64254383648730
H         0.21102693130490      -1.09283707832869       1.96005491200041
H        -0.96959397334940      -0.09383541313062       1.09974862053403
C        -0.13905072047368       0.83775893836148       2.87005890526227
H         0.81905097590739       0.85895809080827       3.39910520900712
H        -0.36511501070719       1.85847059300798       2.54472672667953
C        -1.23394425376270       0.34939474484087       3.81609631344185
H        -1.01451333859719      -0.65992350908933       4.16657151624116
H        -2.20055872648248       0.33965242983317       3.31067170637882
H        -1.29970658013957       1.01075101955215       4.67978255079799
S         4.18701847627062       1.01835047070143      -1.49696831969477
O         5.05988820134692       2.14427721073368      -1.31126287213435
O         3.04400574010832       1.25939034065312      -2.38194830379202
O         3.83954336156038       0.27859530194159      -0.29347843820472
C         5.16767339555357      -0.21812208483018      -2.47729063254569
F         6.22018055948405      -0.67326869048622      -1.81377306923485
F         5.58067946322074       0.28495778818116      -3.63431037908806
F         4.37878999797703      -1.27408407646569      -2.76178872496637
