36
C8H20F6NP optimized with ADF in AMS.
N         0.26292837074045      -0.23335320435382      -0.22253178134279
C        -0.32829641645352      -0.83821348559812       1.05072107545502
C        -0.82634580900385       0.34720713578606      -1.10318733388071
C         0.99317986800918      -1.32806883036742      -0.99431579143775
C         1.22204594960364       0.88372723672102       0.17081208282438
C        -1.41991550717289      -1.86573801118901       0.83551714908038
C        -1.74828646352455       1.34805775185732      -0.43270690328853
C         1.72546720771978      -0.86891305443915      -2.23915202722445
C         2.46814131647625       0.44807988650003       0.91274899484583
H         0.50822488428365      -1.30262346456436       1.59006243164848
H        -0.69732082693457       0.01648570703659       1.63698566654600
H        -0.31231724105195       0.81305859826864      -1.95482240369328
H        -1.39771833361794      -0.51186260938550      -1.48337868017031
H         1.68038705384241      -1.80621946586488      -0.28379118968600
H         0.22550557352848      -2.06932234728012      -1.25106544808760
H         1.47836524918095       1.40182447062998      -0.76582735877394
H         0.63109805350461       1.57445472121481       0.78801251574132
H        -1.72796110002568      -2.20482970579400       1.83701804516414
H        -2.31116518799858      -1.46951195038061       0.32706769498363
H        -1.04911741482548      -2.75908230480539       0.31701406359521
H        -2.46747560723504       1.69483002214998      -1.19095492976823
H        -2.32495247879619       0.90498337060917       0.39020257852265
H        -1.21594146875022       2.23411343515369      -0.06104407768891
H         2.21812848649965      -1.76150613229037      -2.65594239576083
H         1.06388372311239      -0.46672796146195      -3.02020893671513
H         2.51938872596698      -0.13981924484449      -2.02539800901456
H         3.03129294264225       1.36197992747121       1.15935028859790
H         2.25210415766193      -0.08276445541212       1.84924541068422
H         3.11951912049269      -0.20256502633071       0.31619769195409
P         2.52072498266648      -3.61162890213910       2.00565532407769
F         3.23029919972360      -2.62737192394312       0.83780933944415
F         1.95051158209696      -2.21536851211653       2.76503535240428
F         1.12052885074896      -3.61363559187290       1.07458922054881
F         1.76652721598499      -4.52567612709858       3.13450795946256
F         3.05061995526705      -4.93775058436753       1.20517261642653
F         3.88721526183710      -3.53432836379873       2.89927410802575
