29
C9H16N2O2 optimized with ADF in AMS.
N         1.19924312081866      -0.12735294911826      -0.88307055614979
N        -0.91425692088476       0.35408939514815      -0.74252936696178
C        -0.02838166883045      -0.65604999866427      -0.77809630621997
C         2.45573600746595      -0.89902457387620      -0.90736223389813
C        -2.35479020367675       0.21570205398514      -0.52243482702451
C         1.12231060935971       1.25311002104994      -0.90112281403922
C        -0.21333072142032       1.54518906002451      -0.80938659773452
C         2.90908066849817      -1.23471502660428       0.50410645343922
C        -2.70012582589815       0.31311009659534       0.95648154564526
H        -0.27201446402359      -1.71053891664787      -0.73758226275479
H         2.27911556854257      -1.79386055238885      -1.52480661214698
H         3.21957705014753      -0.22700468752562      -1.35363370248938
H        -2.84726935425081       1.00822125739291      -1.10609496750140
H        -2.66617105173367      -0.74915564836843      -0.94987548352193
H         2.06024453032087       1.93641039548477      -0.99844352984634
H        -0.72425972610332       2.50128634815179      -0.80118203646363
H         3.17956117136200      -0.30378502045720       1.02382345071989
H         3.81503881235683      -1.85533208447505       0.44784372496953
H         2.13939286831785      -1.77748408604058       1.07610773502158
H        -2.21590845490645      -0.49689219164924       1.52147600279362
H        -3.78833932960243       0.23610749185908       1.09618777964427
H        -2.36176275383502       1.27352885412707       1.37138129164544
C         5.60985061731263       3.26249268827294      -0.92550261181108
C         4.38043634680355       2.35321721623989      -0.99703774117723
O         4.57380120338552       1.10541307798887      -0.97345294556119
O         3.25673469353194       2.95450615881127      -1.09682102845448
H         5.39220136019883       4.16097489768064      -0.33091659257602
H         6.47389461368044       2.72332275935592      -0.51474244190399
H         5.85646237416267       3.59463966554765      -1.94641510904244
