37
C9H20F6NP optimized with ForceField in AMS.
N         0.26069967650688      -0.11544019564040      -0.18931209358972
C        -0.60860783505302       0.69654651180533      -1.10106998406123
C        -0.49700711746536      -1.33637727024795       0.24005069826211
C        -1.97134001875194       1.07410773166436      -0.49627743151970
C        -1.87718791864430      -1.03524231821511       0.85902887473987
C         0.68399462293117       0.66597530927738       1.02492572925593
C         1.44616296369572      -0.55057844410534      -1.00444170020487
C        -2.72962186064324      -0.17787309046208      -0.07035005003364
C         1.55094702925094       1.90886601339119       0.75080397478923
C         2.52233608303303      -1.35093302967884      -0.24745245341899
H        -0.81779470246925       0.12507909140442      -2.03570036199488
H        -0.09515465443499       1.62218140271967      -1.43425633359214
H         0.07608673983819      -1.91385678358452       0.99756771789185
H        -0.66100238638735      -2.01733396215004      -0.62670465132246
H        -2.57180377506193       1.60835732436357      -1.26377716799036
H        -1.85397847773264       1.77020771164277       0.35983992608939
H        -1.76884363754966      -0.53875975411489       1.84613008604178
H        -2.40757192848128      -1.99505685827195       1.03988913871322
H        -0.19236012345093       1.01700273133772       1.60281594414516
H         1.23736663697303       0.01242833160615       1.73375785965886
H         1.11326433668076      -1.18443556057872      -1.85817439976238
H         1.94183203097768       0.32508261739255      -1.47792110470218
H        -3.66726191444625       0.11435625006769       0.44977204270903
H        -3.00420854586055      -0.76934254267016      -0.97121284885547
H         1.82038495254473       2.37790807192378       1.72049195516458
H         2.50076745032399       1.65228756074018       0.24183280918722
H         0.99897186770688       2.67163433735327       0.16653258953375
H         3.31184504538797      -1.65102807093896      -0.96680283804506
H         3.01125442119675      -0.74188176249562       0.53892212841781
H         2.11292475601328      -2.28146773486955       0.19283338495247
P         5.90742864887255      -3.89425041701238       0.72459305154874
F         5.00375714921533      -3.13779024460447       1.97472897165332
F         4.42362135969746      -4.55531660335054       0.16503400021997
F         5.74257460761596      -2.51227481492607      -0.28157014771765
F         6.72163727626282      -4.68716869410311      -0.56378101133880
F         7.35953917633582      -3.20339101583721       1.32914747059600
F         6.21393396107173      -5.26259691683211       1.71716353287925
