38
C12H19F3N2O2 optimized with ForceField in AMS.
N         1.89276932319417      -0.93384469139157      -0.21875813670518
N         3.12782543456588       0.91060121165479      -0.11777060987504
C        -0.38673748664642      -1.87083127614843      -0.06050283329863
C        -1.04714893439180      -0.51128779219703      -0.32715935573599
C         0.99317766775198      -1.97083740906326      -0.72000831997422
C        -2.45797101793027      -0.45684424176994       0.26504798346714
C        -3.09206957140720       0.91965428157781       0.03709064386022
C         2.34377151477135       0.14037799106070      -0.89595919450096
C         2.40644675579575      -0.83798791618331       1.02428788377132
C        -4.50319284210448       0.97666733583109       0.61255801091796
C         3.17531592624780       0.30711677344213       1.08585489110549
C         3.77137904869824       2.16491235920201      -0.48466393881328
H        -0.28563626165979      -2.03202636746561       1.03491385158346
H        -1.02969573065550      -2.68129944222615      -0.46825515688192
H        -1.10049635126204      -0.33418141092370      -1.42386465813196
H        -0.43271176983065       0.29448730040536       0.13062848307578
H         0.88388790894959      -1.88117363948225      -1.82336819639372
H         1.42955827277826      -2.96896460402377      -0.50346629243577
H        -3.08771121580834      -1.23845525705033      -0.21425081048520
H        -2.40733315831517      -0.66232726815079       1.35721292210957
H        -2.47250391417812       1.70356099027097       0.52520229253280
H        -3.13801942762631       1.13658780973425      -1.05246764263147
H         2.09229962032359       0.36460285140336      -1.92607141004175
H         2.22422124351740      -1.54040919907690       1.82760837918515
H         3.71977448776007       0.67706620519818       1.94533506277700
H        -4.48098722473303       0.78516190984916       1.70653064219587
H        -4.93591739817226       1.98380350197225       0.43623942296085
H        -5.15026088776948       0.21978173343377       0.12032904513973
H         4.87019265590045       2.07150944114054      -0.35888766465189
H         3.55014716725238       2.42178644069249      -1.54252752704418
H         3.39633422409350       2.98040655971809       0.16865023039805
C         4.90532336020808      -2.45374984974585      -2.78807930105818
O         6.09193609340595      -2.56237627165173      -2.52318544743397
O         4.36794956531202      -1.36154751426849      -2.70777518382845
C         4.10730454369530      -3.65009883121469      -3.21230866382277
F         3.11756210841543      -3.89852598484576      -2.28111120469712
F         4.92004263723945      -4.76573693468101      -3.31318083601240
F         3.52390601901422      -3.40461682532639      -4.44161640932635
