60
C16H36F6NP optimized with ForceField in AMS.
N        -0.00409358173845      -0.00046913356082       0.00522395484519
C         0.84141816058244      -1.03093495932447       0.70680203513399
C        -0.87897584568860       0.67775568825233       1.02659394453045
C        -0.82795016266149      -0.69325255358290      -1.04838743415311
C         0.84913081156371       1.04457597872387      -0.66418038066109
C         1.89227898510998      -0.48224517124578       1.70734754133878
C        -1.94451278196374       1.65599782828674       0.46636079565227
C        -1.89809699298873      -1.68861527442933      -0.52912031607130
C         1.93783664149982       0.51383408019964      -1.63247066875093
C         2.66988600468040      -1.63429623100530       2.35824340432961
C        -2.75539263495208       2.28275496802005       1.60850879169984
C        -2.65397090637424      -2.32787613678343      -1.70189477041976
C         2.72920707230975       1.67748012399224      -2.24361134995185
C         3.70146777662868      -1.11451595172357       3.35491241622279
C        -3.79852930815246       3.26055761227974       1.07610072221352
C        -3.70142804013797      -3.32234864478924      -1.21057430440279
C         3.79056803257083       1.17308080878084      -3.21533134228352
H         1.36699511021423      -1.67387711007540      -0.03396332119421
H         0.19473313033472      -1.72078898906143       1.28975097143443
H        -0.25527116376222       1.27326965056470       1.72668491969929
H        -1.39565923774155      -0.07704765271533       1.66026713407711
H        -0.16816096842672      -1.27933392969666      -1.72299582854733
H        -1.33172472447077       0.05280649860553      -1.70253527855783
H         1.34085681591813       1.69187317042121       0.09578857540796
H         0.21282799399509       1.72730467357083      -1.26648989516366
H         1.39715246878570       0.09161483478652       2.51603059767356
H         2.62122648537106       0.18006637455984       1.19838765411186
H        -2.65025945301230       1.13357364630674      -0.21041534275055
H        -1.45948749873439       2.47970661396469      -0.09463178270752
H        -2.63801836889888      -1.17782337310713       0.11941639872790
H        -1.42118260002089      -2.50393202067770       0.05094776976483
H         1.47402643903519      -0.05341345546991      -2.46424658733775
H         2.65323515517798      -0.14977680276085      -1.10654018978663
H         3.19466190117152      -2.22421196891296       1.57535326223353
H         1.96554697160886      -2.30752954046843       2.89440615971140
H        -2.07436089285896       2.82973830588670       2.29688148113867
H        -3.27333924454269       1.48514208529199       2.18449107005016
H        -1.93821617689487      -2.86344515780244      -2.36350654759881
H        -3.16187959404774      -1.53834543560179      -2.29767926439577
H         3.22835650119786       2.25873183489675      -1.43782802320587
H         2.03881907490873       2.35511464028882      -2.79228895247873
H         3.20221012600013      -0.53446446015973       4.16013677209483
H         4.44264831403303      -0.46728168148574       2.83970690592408
H         4.23632787051695      -1.97201864158853       3.81478055568610
H        -4.51537211923429       2.73432131906291       0.41057922026707
H        -3.30594710894818       4.08095757715178       0.51174070344120
H        -4.35982995111018       3.70197436358438       1.92630285163422
H        -4.45212756312332      -2.80775353261911      -0.57392384885910
H        -3.21832496668572      -4.13497196535443      -0.62715018840038
H        -4.22190235822822      -3.77233905628352      -2.08202956059784
H         3.31596541537921       0.59417397225705      -4.03619867768039
H         4.52310018153625       0.52784605384725      -2.68554512238806
H         4.32984177019221       2.03841423330166      -3.65464570386945
P         4.50207900528036       0.09640619035592      -7.59827436592490
F         4.18574311336537      -0.75399671141791      -9.05720680135678
F         2.89212168641426       0.69342046546723      -7.53752729504323
F         3.96215855611699      -1.21981772878541      -6.63478325971925
F         4.93668046340279       1.00773494598315      -6.20955156778834
F         6.08561786122160      -0.56973091597704      -7.59579758341188
F         4.97866464587582       1.44577425317518      -8.54871121798601
