27
C7H11F3N2O3S optimized with DFTB in AMS.
N         0.95562312547494       0.41262303059858      -0.15617367950508
N         2.06963962036871      -0.35941367815180       1.51388205815778
C         0.27957944942919       0.46658383319580      -1.44815574575859
C         1.43074706709357      -0.70005070784694       0.39953912277163
C         1.31182218762600       1.48573766428915       0.61244514254202
C         2.02091808742254       0.99871840513145       1.66443761837243
C        -1.10340105042727      -0.16460145563513      -1.35539971410748
C         2.89029645216562      -1.26128030281120       2.30495216784032
H         0.21072365560587       1.51606726728483      -1.74285312749084
H         0.91191206491848      -0.07027422731552      -2.16316869855025
H         1.34964899842918      -1.69607974899671      -0.00067142207594
H         1.04595354074007       2.49391295943667       0.34729910441309
H         2.49252947265329       1.50104795076535       2.49041299595710
H        -1.02624442248127      -1.21230265952048      -1.06675476093506
H        -1.58845485430615      -0.10421039668667      -2.32850553645407
H        -1.71611676359095       0.35895465034916      -0.62134274251256
H         2.55937970238951      -2.28147423754005       2.12433941267495
H         3.92437955724989      -1.15334340082186       1.97236574918762
H         2.79904966946415      -1.00574016655510       3.35961281444026
S         3.91018396364504      -1.23934273700167      -1.02712342429186
O         3.61905554000616      -2.41700216368754      -0.21661648894866
O         4.33204130761811      -0.08514295848479      -0.25053107276469
O         2.88734162514678      -0.94932793441021      -2.02448537138593
C         5.39915881803782      -1.71107202520216      -2.01426699762358
F         5.13541546748357      -2.74277884809425      -2.80619438677372
F         6.39684413234330      -2.04770130164538      -1.20499726833593
F         5.79903246829391      -0.69638456264356      -2.77134569994293
