43
C11H24F6NP optimized with ForceField in AMS.
N        -0.55135000334216       0.09027964032957      -0.09500355831474
C        -1.54431767427734       0.54059357057345      -1.12434934950243
C        -0.89949629747206      -1.30513685333044       0.32813721615405
C         0.78638758855248       0.07011827762241      -0.78115147563736
C        -0.54091438742293       0.98911872448793       1.11089357336189
C        -3.00789891646793       0.45636353856592      -0.66279836557922
C        -2.35589923837953      -1.46679412559423       0.81311825428672
C        -3.34769137095633      -0.96730399647067      -0.23344601362758
C         2.00033824249985      -0.30126029063186       0.10526403827314
C        -0.14479565714171       2.45043312615651       0.84831553263672
C         3.28410355453489      -0.33378777719615      -0.73530552246840
C         4.49472373204261      -0.71663369377423       0.11050504120544
H        -1.45889039544693      -0.09377661511177      -2.03838096994224
H        -1.33347285928840       1.57400878983185      -1.47080352605555
H        -0.24253814370521      -1.64515560649707       1.15757773330776
H        -0.74737405781531      -2.01689635167501      -0.51630767129414
H         0.99353358022435       1.05688185704261      -1.25247250353365
H         0.76227234303780      -0.65343025358913      -1.62927712439665
H        -1.53469952799852       1.02257710317621       1.59613573811902
H         0.13425879551145       0.58272694452501       1.89433334035911
H        -3.66811237525522       0.74207678915672      -1.50999073102398
H        -3.21191933271887       1.17365684439836       0.15861150251293
H        -2.51692343828271      -0.93765825776587       1.77529737500766
H        -2.55279773279876      -2.54256902309873       1.00870099745460
H        -4.37630852501834      -0.99372011645108       0.18472071167176
H        -3.31847075540293      -1.63871731238726      -1.11929231408604
H         1.85854287840712      -1.30182117793382       0.56200163968018
H         2.13739137171969       0.44769080915973       0.91229519647197
H        -0.16580872288344       3.00530861284871       1.80973048475983
H         0.88081731115667       2.53980152545972       0.43949314880727
H        -0.87200629105475       2.94351516340982       0.17681515512553
H         3.46213284163057       0.66751637504492      -1.18494594652762
H         3.17551184712373      -1.07327957685826      -1.55855606656980
H         4.35545679302385      -1.72821964021564       0.54736384542644
H         4.64366887465748       0.02034581770782       0.92785764707352
H         5.40301497287076      -0.72795031093458      -0.52767979373271
P        -0.71437503503231       6.85524330425821      -1.32839850822368
F        -1.97493967936938       6.30023928708507      -2.35546373425800
F        -1.87824327920089       7.31385076875206      -0.15074668048111
F        -0.62697934894101       5.29936714041665      -0.61305957280943
F         0.54728209215527       7.37968056423069      -0.28690043108595
F         0.44916854634000       6.36535910447339      -2.49365836119457
F        -0.79302118161558       8.41663910620247      -2.03945285185068
