35
C9H20BF4N optimized with DFTB in AMS.
C         2.69981363834497      -0.27373431340139       1.41473566553054
C         2.01397323394342       0.60157074174644       0.37196355688132
H         0.81803393468726      -1.78685258244201      -0.34292701416426
H        -0.31851951527305      -1.63547021669358       1.02958536364120
H         2.34460960240044      -2.41486681075422       1.27488105439001
H         1.46457139424128      -1.62534790713364       2.59856090711634
H         2.80977522090921       0.25154799506263       2.36656209930330
H         3.68971118948298      -0.55408283741722       1.05286249840477
H         2.06971429111850       1.66957971431750       0.58695504570004
H         2.41966863722945       0.40315188639677      -0.62208941262078
H        -1.14882520372131       0.44725997368592       1.56184757319005
C        -0.14458700428145       0.85531564883960       1.47180160952863
H         0.39755496209548       0.68775698511153       2.39995232335434
H        -0.19500757789379       1.92231965510819       1.26111753636600
C        -0.02309929728347       0.53747862294382      -0.96899011438278
H         0.13010014858809       1.61524341399688      -1.07454420477024
H         0.57318982584801       0.02467434646526      -1.72739118441158
H        -2.10389993793031       0.55399707260288      -0.31769689531978
H        -3.41551004035503      -2.45265508080493      -2.27269627664525
C        -1.80722814174507      -1.25200998274562      -1.48597533141131
H        -1.07063764287912      -1.62885588251722      -2.20096783586493
H        -1.73613949908432      -1.85674804981359      -0.57753068883420
C        -3.21111869095462      -1.40171152753779      -2.06903176553198
H        -3.29997718365996      -0.84398027727002      -3.00209493761578
N         0.57276715414282       0.17569537691587       0.36386125519474
C         0.63187082582128      -1.29993113790343       0.61498482021868
C         1.80594925363354      -1.51254788863101       1.56667993630141
H        -3.96133545852582      -1.03041673522848      -1.36867273506956
C        -1.50426193761754       0.21821636750245      -1.16918005043513
H        -1.81004151606064       0.82212696109685      -2.03069893896317
B         2.48405092808511      -1.57180389172474      -2.31261427364905
F         3.20650302482128      -2.23614389606393      -3.25394944890169
F         2.98501652174131      -1.78940659904418      -1.00398292494561
F         1.12006878535092      -1.98079134743768      -2.30594958365054
F         2.48357235248012      -0.16948538752791      -2.52808430473375
