61
C17H36F6NP optimized with DFTB in AMS.
N        -0.53962620753615       1.37704494906074       0.16944314867822
C        -1.28582126331747       2.12510224391401      -0.89567097660565
C        -0.26100143078233       2.30794889313685       1.32126322563198
C        -1.30975706527050       0.18475385093925       0.66946426195295
C         0.77278883170475       0.95916456408384      -0.44741928159245
C        -2.57132405870296       2.76484647811036      -0.38687905548835
C        -1.50702050442735       3.00504899353122       1.85276349333070
C        -2.26195199857940       3.73834613787452       0.74846094768591
C        -1.66002848267534      -0.85858226217632      -0.38584334266195
C         1.68172418115118       0.12038523442296       0.44707955613991
C        -2.31778081568023      -2.05301172495621       0.31840438422789
C         2.96274122686880      -0.23110081898403      -0.31703277305819
C        -2.65837510141634      -3.16579384041738      -0.67543549844129
C         3.88392203343986      -1.09318278996655       0.55163932755735
C        -3.26018974273896      -4.37549024222390       0.04678625877941
C         5.17408785799262      -1.45097067713296      -0.19220369407878
C        -3.61913932603644      -5.48964294806188      -0.93474731792018
C         6.09337175428072      -2.30934708908768       0.67500771826895
H        -0.61109750377826       2.90239433946728      -1.26654621745904
H        -1.49302257717937       1.42799541487606      -1.70955776596575
H         0.19201566036170       1.71537071396507       2.11646584483389
H         0.45993468995121       3.04735418348886       0.96077807324759
H        -0.70336729630308      -0.27079916137172       1.45009898618256
H        -2.22105711358560       0.55705911880878       1.13703349511520
H         0.53369154076733       0.40810824075402      -1.36051402203035
H         1.28672334841899       1.88123734826799      -0.73427576039529
H        -3.02885689358966       3.29527118048490      -1.22624932409081
H        -3.27577552103102       2.00026450251146      -0.05064230933923
H        -2.16413031560810       2.28484628698393       2.34280984737298
H        -1.17375427446212       3.71500547691161       2.61383120276471
H        -3.19220556619282       4.14966461011250       1.14641517873120
H        -1.65754786236497       4.56753505741052       0.36532599115957
H        -2.34816537267079      -0.44862365500973      -1.13181895695668
H        -0.76237960159087      -1.20466798535526      -0.90557591943116
H         1.18282251796658      -0.80126851616156       0.75044491666257
H         1.94208323303487       0.67328475952227       1.35089174745468
H        -3.22848575042401      -1.71911578897885       0.82530420906138
H        -1.63401271819396      -2.43671648184031       1.08064617667113
H         3.48242066202957       0.68923143224219      -0.60610893764377
H         2.70684860824459      -0.77333558467879      -1.23424956477657
H        -3.36871503393662      -2.78924261526185      -1.42044000959050
H        -1.75007296410855      -3.47243338397977      -1.20622902028530
H         4.12917632581553      -0.54911247973115       1.46941837145957
H         3.35810580554573      -2.00972459786892       0.83757091625811
H        -2.54078757752406      -4.75336800968683       0.78008107545021
H        -4.15914310783488      -4.06454529904849       0.58917306032392
H         4.92682451750665      -1.99459578082628      -1.11069070866250
H         5.69639253627200      -0.53155117233655      -0.47870596390778
H        -4.03995765981684      -6.33943080976011      -0.39703356144716
H        -2.73223218445989      -5.82502501329510      -1.47451015580235
H        -4.35459746982873      -5.13898237954698      -1.66050576017758
H         6.36703777350111      -1.77538142074632       1.58579134852565
H         5.59598455758435      -3.23894628101958       0.95428512955125
H         7.00407235501902      -2.55285569468888       0.12742799139060
P        -0.47099475923755      -0.52882039709790       4.23422832832033
F        -1.65335436345803      -0.99702115946042       5.24343949306163
F        -1.52128968242460       0.56897624727532       3.50490320221965
F         0.01661357140182       0.64415138709150       5.25739179172357
F         0.70881015980507      -0.02387175046537       3.13068730312268
F         0.58297708837567      -1.59199983187588       4.86419130874048
F        -0.95916449947189      -1.65631834544854       3.10910962305030
