25
C7H16ClN optimized with ADF in AMS.
N         0.28342020241843       0.27262657301354      -0.00501810481447
C        -0.22838554105660      -1.15876322123370      -0.02843210043112
C        -0.67882295026363       0.93238378393443       0.97229056352115
C        -1.75220530450694      -1.04393240632766       0.01765179455455
C        -2.04789706882942       0.34387048032449       0.64476443398407
C         1.69209232931974       0.34527707501328       0.55638068900856
C         0.18132937349623       0.90352670649786      -1.35017268181722
C         2.71725868525280      -0.43146061297030      -0.24209894875000
H         0.13608919248502      -1.59243964328221       0.92920559793537
H         0.17463105306020      -1.67297439067571      -0.91025990752501
H        -0.59108653400581       2.02396963355930       0.87719067084301
H        -0.34998221814354       0.56406358698161       1.96862013010452
H        -2.13984411627170      -1.85472510389708       0.65134777791483
H        -2.21155298922163      -1.13779150157528      -0.97822336351363
H        -2.62746236845996       0.97820036027458      -0.04384094350421
H        -2.62058082258337       0.24603654392053       1.57835608056493
H         1.93879316333500       1.41761104603949       0.61463727573703
H         1.59077690161473      -0.07862031973801       1.58141104760118
H         0.79413633074486       0.34158880083249      -2.06539000545890
H        -0.86627707195311       0.88889644016471      -1.67502836866674
H         0.53660847880044       1.94101214109815      -1.28395861836832
H         2.48290785138407      -1.50607870444656      -0.25224651145910
H         2.84918650431161      -0.07325326032830      -1.27416596505812
H         3.68410472640324      -0.32233863105581       0.27242059116588
Cl        0.40241491886934      -1.25549526032383       3.17646706643176
