33
C9H10F6N2O4S2 optimized with ForceField in AMS.
N         0.15928278552212      -0.00637147071842      -0.37635458408084
C         1.60545488678064      -0.00540680698900      -0.62943500985628
C        -0.50939252265631       1.18057433468224      -0.25096858355476
C        -0.50576932005885      -1.19432985454384      -0.23937405038339
C         2.37172190754928      -0.00311882131485       0.68886271176617
C        -1.88027332210053       1.19644824990718       0.02099345754101
C        -1.87476575262566      -1.21289474083301       0.03977519023481
C        -2.56238880803699      -0.00829388633631       0.17484084359552
H         1.89750272292257      -0.89954072718888      -1.22385650480139
H         1.89673973262555       0.88755049896858      -1.22594872941587
H         0.01784460120066       2.12189071845461      -0.35364986555340
H         0.02264954726459      -2.13521295078764      -0.33702049156734
H         2.11553264816656       0.90359102351479       1.27726867247952
H         3.46368816229707      -0.00465483560508       0.48841226358984
H         2.11457057296424      -0.90732680962580       1.28046831648714
H        -2.41074474353578       2.13440227187437       0.11487831090197
H        -2.39701921839259      -2.15390103664211       0.15302744610458
H        -3.62151184362345      -0.00749285729624       0.39788817041089
N        -1.37192987207817       4.68020323672194       4.02081321206788
S        -0.37103959024487       4.07315452355361       2.87332467175549
S        -2.70629662675083       5.56250147067279       3.65903826838363
C         0.95417404516210       5.22335533320920       2.57599909647446
C        -4.14115989377235       4.50975796179068       3.73107678841140
O         0.20946367240171       2.77477010269984       3.35774814627216
O        -1.11890931886586       3.84423256361859       1.59142403467165
O        -2.59411408779457       6.16456893776472       2.28555748920801
O        -2.86143454893241       6.65811888169481       4.67496168238317
F         1.81545595375432       4.70029832239090       1.63003170973074
F         1.64469141525651       5.44668568044852       3.75180595910903
F         0.43723666510915       6.41839493850414       2.11342722537949
F        -5.26887884530680       5.24199294057999       3.41124340191485
F        -4.27442506311978       3.99903761193599       5.00831403882987
F        -4.00096092038126       3.46830048299373       2.83348101240999
