46
C12H26F6NP optimized with ADF in AMS.
N         1.35953475569096      -0.69619514470767       0.30286159069604
C         2.55820018063077      -0.42359537505774      -0.59622262008434
C         1.90696581620325      -1.74266427410406       1.26290662902149
C         0.95796062455402       0.54125106504387       1.07817695634135
C         0.22872719476023      -1.25413163359316      -0.53352297765108
C         3.24760781698682      -1.77602145252026      -0.78487373016224
C         2.80449514576258      -2.64488169117734       0.41977000394175
C         0.49977829903509       1.70364273988842       0.21553906422597
C        -1.06925424037087      -1.51425827665313       0.21392081892822
C         0.39159853034085       2.97227412841386       1.06950799504124
C        -2.08896798707712      -2.21258118880024      -0.69227364572504
C        -0.07496045374215       4.17667917732131       0.25648673694000
C        -3.41363699850840      -2.46267364283849       0.02501784847935
H         3.20108605295871       0.27465352349828      -0.04287949781811
H         2.20422545737674       0.03786661572806      -1.52676072606739
H         1.06763368482340      -2.24914202519500       1.75509209627091
H         2.49587753706320      -1.18597557944475       2.00568447616120
H         0.17755008563354       0.22870847327209       1.78807771698785
H         1.85040585167203       0.82108097976115       1.65539202903628
H         0.06156894398830      -0.53339542980354      -1.34754547037598
H         0.61069086614668      -2.18410004609144      -0.98222952753945
H         2.96750551684860      -2.24714480944625      -1.73882506824597
H         4.33493974340368      -1.61969013984841      -0.78835113259683
H         3.66433357369231      -2.95968351854881       1.02716280041695
H         2.27687593513401      -3.55070679808352       0.08443044303803
H         1.23363404217666       1.89052490708752      -0.58694510281009
H        -0.47451565978955       1.49472790861114      -0.26295059918766
H        -0.89219665731917      -2.14510160292538       1.10157546797966
H        -1.50111121956767      -0.56458316979161       0.57101061601263
H         1.38011098279673       3.17570110603328       1.51622371644596
H        -0.30522642313347       2.79281791696886       1.90824535230657
H        -2.26333446157959      -1.59492731013477      -1.59216526272845
H        -1.66857349312427      -3.17135218837466      -1.04572978808327
H        -1.07497173175137       4.00716690049041      -0.17444831646746
H         0.62035152860857       4.38470021043422      -0.57253485985962
H        -0.12617626904821       5.07913618153074       0.88226115222526
H        -3.86554038790904      -1.51608721066197       0.36142422451363
H        -3.26839534918327      -3.09978806219704       0.91208792389408
H        -4.13581406420434      -2.96466543931651      -0.63473303997914
P         4.79946116982838       0.88889583105263       2.56110737360723
F         3.33289486365547       0.39650539199775       3.23111971378225
F         4.74209167787050      -0.47460295418281       1.57596086051972
F         3.91384405640033       1.71082906916570       1.37969124627154
F         6.18921025254075       1.35159053565457       1.83501742520329
F         4.77689265384781       2.22564842914065       3.50108668778710
F         5.60587966017751       0.03329172580407       3.69652453740656
