66
C18H34F6N2O4S2 optimized with DFTB in AMS.
N         1.43046371781353       1.25578838054052      -0.28525378652173
C         1.13504398203114       2.26649218318311      -1.35394386617540
C         2.33760845917213       2.00586353372862       0.64674565572907
C         0.18605706277409       0.87040676538285       0.45981238310856
C         2.12167887250805       0.06845980068009      -0.89387563151722
C         1.02486288482064       3.60825658346568      -0.63637341961034
C         1.80513066079817       3.43500020629226       0.67511743953939
C        -0.80580400892265       0.02080626891001      -0.33289374345524
C         2.64284875589158      -0.93641416609197       0.12738997572292
C        -2.10385184588436      -0.12720924023178       0.47042449532980
C         3.39859888887589      -2.04603376154237      -0.61481794741531
C        -3.11683862985876      -0.99668574545593      -0.28062338482346
C         4.13508256471983      -2.96285358478781       0.36519270251748
C        -4.41518835572064      -1.14903546117421       0.51821089617215
C         4.90787017781691      -4.05330006593652      -0.38266080213226
C        -5.42737154251249      -2.01606914033780      -0.22805822218346
C         5.70160680832871      -4.93266502766961       0.58134840399033
H         1.98570771628477       2.26852278845964      -2.03774694523290
H         0.23318437882140       1.98376073142881      -1.89508357832660
H         2.33756929563267       1.52616595157465       1.62499269511979
H         3.34179666603668       1.97073284249988       0.22596509784637
H         0.50121735008995       0.32534243638106       1.35281818461122
H        -0.29259111331687       1.79970582785933       0.77764541626203
H         1.41841899919751      -0.39850130805999      -1.58629784556353
H         2.95996165510708       0.46077914781122      -1.47006713432955
H         1.46000482983139       4.39330597638334      -1.25681387413485
H        -0.01776513752211       3.86790768821824      -0.43980423825646
H         1.15605999231930       3.59636448215092       1.53859143182525
H         2.63866165750276       4.13569375531295       0.73780111494589
H        -1.03003072294445       0.48363025585784      -1.29747854495328
H        -0.38881768297419      -0.97163062144833      -0.52110169511324
H         3.33413196121203      -0.43746714707445       0.81061503251716
H         1.82517352898492      -1.36647662746573       0.71354846727628
H        -1.87949900527375      -0.58039762187158       1.44181557103591
H        -2.53393675416576       0.86325359127136       0.65394700683450
H         4.12653863635290      -1.58554367357569      -1.28764038367622
H         2.69544414564226      -2.62753853224482      -1.22074818903280
H        -3.33539746176467      -0.54189956558902      -1.25279634147188
H        -2.68129388216565      -1.98465291942376      -0.46427796427496
H         4.83480371773259      -2.36389377892496       0.95690395764799
H         3.41734832338705      -3.42200770604627       1.05475840071857
H        -4.84708890303056      -0.15938952303759       0.70167452789248
H        -4.19249377029812      -1.60233165552820       1.49000837645504
H         4.20722006396701      -4.67239037321094      -0.95367939227388
H         5.59567318628592      -3.58422313007995      -1.09323097019894
H        -5.67673481450586      -1.56942891732297      -1.19146844545035
H        -6.34121951707756      -2.11010467001817       0.35852214177133
H        -5.02153671017803      -3.01343563488117      -0.40216298187250
H         5.03505368766448      -5.42528045103778       1.29138662579576
H         6.24520500795607      -5.69753892537876       0.02654185363993
H         6.41996746962700      -4.33117782123419       1.13976052010707
N         6.37298528526907       1.42062735911770      -2.67089420706826
S         5.31913810588334       1.81478301220375      -1.56556343953298
S         7.71005164173708       0.67422494440242      -2.12787858554013
C         5.88886767550423       3.33060697115945      -0.60050475810380
C         7.18782412599086      -1.09729086781739      -1.77405832911780
O         4.12970986819029       2.30821896060009      -2.24426413720206
O         5.06699364359995       0.83293141665782      -0.51445031742441
O         8.20881296088588       1.18624807562324      -0.87818386996751
O         8.60226829220115       0.56367333470585      -3.24535206177181
F         4.78251636122248       3.99608587528077      -0.23358007770574
F         6.62956701503534       4.13094096147518      -1.34085948433727
F         6.54127280692696       3.00262300577188       0.49455844074901
F         8.15501078313118      -1.92415543289078      -2.13324266420926
F         6.09703653814071      -1.39873701878111      -2.47634721374754
F         6.92529970751142      -1.28543069031898      -0.49191552613640
