33
C9H10F6N2O4S2 optimized with DFTB in AMS.
N        -0.23140010635020       0.51669412286219       0.06396580321418
C         1.10299038187560       0.52036853037877      -0.55550478678646
C        -1.17506917789063       1.35255409161110      -0.39986190116722
C        -0.45736566260949      -0.25068126517779       1.14240623695562
C         1.99192235878724       1.58772712053188       0.07365869910116
C        -2.43374775429432       1.36821510774387       0.16299789547338
C        -1.69881871004514      -0.26650120465363       1.74310685898206
C        -2.70939814944480       0.54450666829017       1.24590464562683
H         1.53542699138372      -0.47413659008194      -0.41872072011571
H         0.97276355263080       0.70571895628537      -1.62492541931760
H        -0.90245644737035       1.99536334764099      -1.22695867557928
H         0.36990063339854      -0.84643891619098       1.50610989455548
H         1.56482848422524       2.57711039408723      -0.08085682577897
H         2.97392021039348       1.54276542148757      -0.39504501214368
H         2.09533544037248       1.41353474771828       1.14287066189952
H        -3.17481754850724       2.05643558838979      -0.22078686072119
H        -1.85479333666045      -0.88827081515288       2.61493914536324
H        -3.68590206738371       0.56149531604693       1.71307863141664
N        -1.47829422951217       2.99161240837931       3.48051687451117
S        -0.19670510343083       2.89015501706043       2.54779856807970
S        -2.29903188485758       4.38376093445444       3.43417567363934
C         1.16253026385822       4.06497270773220       3.11645735282117
C        -3.52956036816632       4.19091801567115       2.03154218014509
O         0.37587588280801       1.57395528980820       2.78661521242565
O        -0.39465813812046       3.24181611983362       1.14416919296507
O        -1.51325182103253       5.53960726132720       3.09428813332493
O        -3.13779907500134       4.41607071718172       4.59719668245319
F         2.32252575690738       3.43662811558049       2.94599805227127
F         1.02328178159215       4.36515435551862       4.39168237976303
F         1.17480393063435       5.16406514214551       2.39329971954781
F        -4.50409714122591       5.07217115149036       2.15569066733418
F        -4.06422981588988       2.96402486330978       2.07389689677895
F        -2.96971411027387       4.33991256709006       0.83834844376142
