34
C8H18F6NP optimized with DFTB in AMS.
N        -0.34827647557122       0.12743842687958      -0.15478163968943
C        -1.31259125390732       0.43968414823138      -1.26311866180305
C        -0.78593954427165      -1.20970312044283       0.39224555426839
C        -2.63382887611054      -0.15860732931804      -0.80842297055367
C        -2.21690904139711      -1.44554104448136      -0.09487748012402
C         1.04882481912144       0.09724602204312      -0.71168131071484
C        -0.45967276282161       1.16833910483615       0.89871213474159
C         2.12358592690735      -0.25358049690643       0.31322155583555
C         3.44685273352478      -0.48299641132189      -0.41732376624655
H        -0.95616373439544      -0.06444074684321      -2.16269678032579
H        -1.33975431669490       1.51725468410712      -1.42732212935137
H        -0.70595072606345      -1.18478569382387       1.47954726633988
H        -0.12013438848498      -1.97371833712000      -0.00287506217832
H        -3.27889091415965      -0.35989253115720      -1.66410756322275
H        -3.15909154835923       0.51847644633320      -0.12910912336953
H        -2.88547653171553      -1.68005363355626       0.73455649524490
H        -2.21975151816275      -2.28335698486008      -0.79550853899119
H         1.23506370603064       1.08387685715979      -1.14535092113368
H         1.05187981184491      -0.64688181080403      -1.50910812978794
H        -0.14617341073113       2.12679799224966       0.48759392013895
H        -1.49327896270740       1.22839442708320       1.23271847015701
H         0.17803363494533       0.90094726894511       1.73792764187879
H         2.24012786449540       0.55142262622825       1.04551896825682
H         1.84773750928999      -1.16773090740721       0.84321493946995
H         4.22501442374339      -0.72882789089059       0.30425703399666
H         3.34634466871964      -1.30931020225864      -1.12012763845299
H         3.74473771451532       0.41237349877488      -0.96398081664800
P         0.68568481323338      -3.42880335698275      -2.30982686048201
F         1.42028542642429      -2.82711239783068      -0.91153476061704
F        -0.29287768648106      -2.03566046747513      -2.33050165682516
F         1.79705630851753      -2.59882784050204      -3.18650565254085
F        -0.06030415831188      -3.95211541946531      -3.65327294577976
F         1.63030889359899      -4.74336020343118      -2.24036733703491
F        -0.45532434136553      -4.13108950969271      -1.34866830195563
