31
C9H20ClN optimized with ADF in AMS.
N         0.02998212702291       0.22048735722236       0.17982883886084
C        -0.87110234711990       1.19355390898947      -0.57710868684176
C        -0.34837057924894      -1.20980218354359      -0.18913778182528
C         1.44702357020168       0.49933027908744      -0.30767031167851
C        -2.34911564034941       0.91164580140565      -0.38076744125763
C        -1.82617964778949      -1.49471274010839       0.01090680826442
C        -2.67849282226364      -0.52028871166927      -0.79863754934884
C        -0.07447442605261       0.44280288253905       1.64794396770277
C         2.53552261953046      -0.35031867461527       0.32180294057777
C         3.87857563850968       0.00257635489805      -0.32016125688386
H        -0.59328068169868       1.04191133623730      -1.64473774972934
H        -0.58192235564418       2.20056622536437      -0.23642647458662
H         0.28178675030972      -1.86763969084324       0.42505111896649
H        -0.08250974440271      -1.28952963493315      -1.26817747830661
H         1.62127870707071       1.57040637835090      -0.10777584462329
H         1.39072720171252       0.33341744391121      -1.40763262116550
H        -2.89192510305074       1.63543783348576      -1.01155131206946
H        -2.67211051832843       1.09898333433408       0.66007483001310
H        -2.10741026770603      -1.46521527415356       1.08012263006910
H        -1.99230214605432      -2.53054309001268      -0.32902570188726
H        -3.75015189369054      -0.73046739210344      -0.65742389841957
H        -2.43356007359387      -0.64190450408078      -1.86920455264583
H         0.52767269460720      -0.30973422714909       2.17025410689234
H         0.29982784181996       1.44995449090860       1.87594926392017
H        -1.11980822381912       0.35610578717347       1.95929530607470
H         2.59844584069891      -0.19379610149379       1.41280926759102
H         2.33282010264518      -1.41866031179248       0.14510250090040
H         3.84737759862995      -0.18789295278541      -1.40358971988059
H         4.12596083787313       1.06465574242639      -0.16661776298784
H         4.68648572496846      -0.60183142446033       0.11661489203038
Cl        0.23575224411215      -0.32052444008962      -3.31869891042571
