51
C13H24F6N2O4S2 optimized with DFTB in AMS.
N        -0.65556502814098       0.88359404634130      -0.25270970774514
C        -1.67792477511453       1.66304810670190       0.53140130719673
C        -1.32850832312428       0.24395353958851      -1.43618156962514
C        -0.01639653619144      -0.12978622081554       0.65003066638258
C         0.36254563722332       1.84121681940330      -0.82371669477029
C        -2.90195292918409       0.84222680583282       0.91679368817102
C        -2.53217627588060      -0.61121609103292      -1.07054531619520
C        -3.55957579893876       0.22880848917623      -0.31680397845878
C         1.12852530520948      -0.93032202463194       0.03043806923413
C         1.15201852197154       2.65434847263517       0.19729175014056
C         1.61681250575075      -1.97130140279929       1.03790974939588
C         2.10865909052965       3.58008264558926      -0.55558893573162
H        -1.18426187029363       2.05154463705250       1.42336059722098
H        -1.98473697094372       2.50015029990543      -0.09896782348592
H        -1.65900947061122       1.06261232003731      -2.07669310938771
H        -0.57849471561295      -0.33809901512591      -1.97359791693321
H         0.34537601321518       0.40976824853558       1.52872365947938
H        -0.80151920307723      -0.81527294786810       0.97464211023982
H         1.03723641651927       1.25423740108827      -1.45059730368950
H        -0.19062940077043       2.52091218938354      -1.47265458163877
H        -2.64004331083316       0.06006416233076       1.63622416151509
H        -3.59934946704301       1.52505407166871       1.40898627068060
H        -2.96417717072667      -0.96905083298242      -2.00847142227904
H        -2.23627662095775      -1.48333432134230      -0.47983458851764
H        -4.40540961547401      -0.39394948343232      -0.01764033697030
H        -3.92803703050700       1.02173580292511      -0.97433924787681
H         0.79587204891999      -1.43956043404733      -0.87718002536889
H         1.95974879511458      -0.27203944227743      -0.23209381857692
H         0.47416084371765       3.26569388834603       0.79671692881680
H         1.71948745704490       2.00162777404160       0.86693312738990
H         2.43876669351609      -2.54062661838854       0.60583586238996
H         0.81331030548609      -2.66127673161641       1.29737069484686
H         1.96943009884466      -1.48684777762542       1.94886476612286
H         2.67528351408009       4.17705373551064       0.15786621548961
H         1.54725654932651       4.25051736699967      -1.20585718487093
H         2.80622660018769       3.00229051817634      -1.16295615284187
N        -2.36173144514933       3.36341577168954      -2.00058522274303
S        -1.50736637429513       4.70645047146098      -1.76459915274513
S        -2.89880371202459       3.03473804265909      -3.47981135005314
C        -2.60544901996742       6.20942953245176      -1.99963338186342
C        -1.41319793414742       2.67497590636598      -4.57368408287473
O        -1.19817881303164       4.70019821808143      -0.34840657770870
O        -0.40078159641931       4.87188830128040      -2.68033970263344
O        -3.60969677652226       4.10429674831210      -4.12540877911687
O        -3.53450281789360       1.74120557743902      -3.36226717759788
F        -2.16709728659536       7.16982534244956      -1.20272627321693
F        -3.84817118650141       5.90934317919995      -1.66619659120932
F        -2.56562400297906       6.62954413061945      -3.24484356815699
F        -1.75222253556252       1.76797460895071      -5.47546880015490
F        -0.43861049114538       2.15100587685903      -3.81674767922831
F        -0.95738812509760       3.74357378069696      -5.18430582704632
