35
C9H18F3NO3S optimized with ForceField in AMS.
N        -0.37646833481013       0.37916251418910       0.06855891548731
C        -1.42345968159158       0.65170062139667      -0.95652866079125
C        -0.86832371047891      -0.79807513899983       0.84399133266371
C        -2.68915537118127      -0.06177618619081      -0.52584620022181
C        -2.18361513120825      -1.25867298299784       0.23383089996182
C         0.91909928550210       0.08310385186762      -0.61815439628078
C        -0.24676179721676       1.56695222961352       0.95307506175365
C         2.13031358218620      -0.06794857262912       0.33209642606694
C         3.34722679466585      -0.60761886015467      -0.41325722224591
H        -1.14123788406209       0.25096531144319      -1.95852387201562
H        -1.62339406708112       1.73910183444645      -1.10131521462836
H        -1.04990025887037      -0.54920105361766       1.91567285194200
H        -0.15745021879431      -1.65385925266885       0.83824074443476
H        -3.31106271025318      -0.36253309489743      -1.39753646938868
H        -3.28292130075029       0.59230900899285       0.15004356364373
H        -2.90904795143753      -1.58632734552258       1.01009528540518
H        -1.99578014352302      -2.09725604026625      -0.47365930853614
H         1.15703398186656       0.89644985124122      -1.34246948355983
H         0.81675378517264      -0.85309477734794      -1.21583578230115
H         0.20291735717063       2.42428397325313       0.40376342043443
H        -1.24020400469323       1.88707435247290       1.34053335493255
H         0.38841309748863       1.34635338628265       1.83856199755760
H         2.40315749944800       0.92214686533766       0.75521054875123
H         1.89897062823652      -0.75415493524051       1.17244232127827
H         4.21416012567506      -0.66322723560787       0.27833363161116
H         3.14085882438536      -1.62526065559490      -0.80767342715317
H         3.60750778291687       0.06539102246832      -1.25583298253936
S         5.25493330249961       1.95038151563304      -4.43175247983320
O         6.74965009675597       2.30320931652659      -4.42394917229378
O         4.58145624428563       3.26468631621357      -4.00967677403624
O         5.10058534478839       1.06294406506682      -3.18876605093319
C         4.64015271974363       1.22589866815592      -5.97478790319430
F         5.29532459668791       0.03378183138616      -6.21584760807440
F         4.87445456429806       2.10019358676269      -7.01836676146236
F         3.28301877057840       0.99203272958620      -5.86466692823481
