44
C12H24F3NO3S optimized with ForceField in AMS.
N        -0.83401300076183      -0.21144187251635       0.01872597116028
C        -1.16900374780543      -1.25004749329549      -1.00436496923011
C        -1.97087213667877      -0.24526330713577       0.98852653147293
C         0.43547912059394      -0.57450170725423       0.72976731455562
C        -2.59118548279533      -1.72035737983357      -0.75975060474654
C        -2.79707969166607      -1.48467862609915       0.71012303323669
C        -0.75801109657853       1.13360879251332      -0.64015399933473
C         1.70318524227777      -0.54182888765036      -0.15844475635510
C        -0.40207054947835       2.29668112880530       0.31672923803419
C         2.91593829600122      -1.08444060412334       0.60756602174294
C        -0.50069384810541       3.64137091547056      -0.39821840107726
C         4.18018650423264      -1.03480423184421      -0.24598091270307
H        -1.06876260170346      -0.88474932367464      -2.05211856436804
H        -0.51500205678008      -2.14854657309730      -0.92388683844807
H        -1.64470260609460      -0.23575625022702       2.05384236618764
H        -2.65346448646723       0.62414599968786       0.86015899174626
H         0.33642767300824      -1.59537386789383       1.16708727051919
H         0.60340730026598       0.10011914833978       1.59827573582184
H        -3.30217711898301      -1.09635818720380      -1.34570371296035
H        -2.72730542318941      -2.79146346838813      -1.02483704038389
H        -2.39897677399471      -2.34465588300984       1.29293645171736
H        -3.87110067713231      -1.33092578861411       0.95406337117053
H        -0.01624312895012       1.12146298447836      -1.46903960022735
H        -1.73489047087723       1.36453553531881      -1.12603564057912
H         1.55528604088088      -1.14935978925728      -1.07575132782477
H         1.92676641710415       0.50138679485231      -0.46421659741115
H        -1.08421767434352       2.31415267818220       1.19176166653324
H         0.63720366076157       2.18923983459086       0.68970146275932
H         3.07891044227034      -0.47839952176124       1.52554174397020
H         2.72817800181304      -2.13777576993379       0.90961257361905
H         0.20352125493954       3.67260872005239      -1.25692016573650
H        -1.53547813606305       3.80977236427161      -0.76514786948263
H        -0.23726866909943       4.45827228124753       0.30638160413235
H         5.03926650123714      -1.42487961476783       0.33974649945096
H         4.05697652939548      -1.66079908495851      -1.15530400109494
H         4.40296283131529       0.01098051467384      -0.54743686582293
S        -4.96419841748864       4.34767010911539       3.56787487102873
O        -3.93303809264143       5.46195393675411       3.33761440011286
O        -6.27292118027718       5.12097301419970       3.78447175173286
O        -4.62013575159957       3.84056863427204       4.97587196349062
C        -5.01984106776890       3.07182978501928       2.28173871456990
F        -3.78747274237871       2.45792964854824       2.19759952278176
F        -5.32902233281298       3.65167347817977       1.06715906579647
F        -5.98080492638190       2.13310876626655       2.60187057444273
