30
C8H20ClN optimized with DFTB in AMS.
N         0.07057030434384       0.00323918584407      -0.06513415944427
C        -0.66525455754273      -0.32792580480189       1.21070336515435
C        -0.87855869158211       0.25853659992873      -1.20407065470706
C         0.94668306356134      -1.17150879405446      -0.43352417824678
C         0.88408658563016       1.25214743766902       0.16627698362593
C        -1.61875186373272      -1.50672926285429       1.11381969771368
C        -1.95386663551212       1.30290654203250      -0.93889683310885
C         1.92737577854332      -0.91616129212105      -1.56526418806859
C         1.98727075065583       1.13656469626076       1.20690988825764
H         0.10411951695914      -0.57118901522068       1.95276534587306
H        -1.19813198491316       0.57386626053881       1.51959665451968
H        -0.27406805261059       0.57342027130056      -2.05761031271987
H        -1.34833361093410      -0.69592896785134      -1.45125317654219
H         1.48114822277103      -1.46692320012186       0.47963247562502
H         0.27263517142735      -1.98268774607611      -0.71625188454401
H         1.30682357558300       1.53883120216622      -0.80000253131639
H         0.18080411778515       2.02927759495546       0.47470375222074
H        -2.09709365244428      -1.60980618865341       2.08779218047587
H        -2.39710382935110      -1.36506262301769       0.36492298421624
H        -1.08369393065382      -2.43151004724878       0.90674429524770
H        -2.54970357380459       1.39644133240110      -1.84696192296743
H        -2.61645829421687       1.00762487521564      -0.12806759235726
H        -1.52784306284049       2.27827894281996      -0.71143082848978
H         2.45111671379565      -1.85436829104405      -1.74890338925376
H         1.43360172780628      -0.61707046572362      -2.48981174601701
H         2.66980161027851      -0.16518124592117      -1.30199118537570
H         2.51396923175330       2.09104229481825       1.22589936868343
H         1.58918935737053       0.94018387820901       2.19921255366353
H         2.69816082717012       0.35041893353767       0.96666869387617
Cl        1.83626113100415      -1.77259429368735       2.59157967840589
