34
C8H18F6NP optimized with ForceField in AMS.
N        -0.37101402646640       0.36782762517469       0.06228190069813
C        -1.40411430958402       0.61830199010783      -0.97971894359378
C        -0.84405036287810      -0.83073064309990       0.81580100271326
C        -2.67584197097585      -0.07797528885912      -0.54293564829996
C        -2.18220018606170      -1.26872003371375       0.23510614863577
C         0.94347722520070       0.11794970065982      -0.60462351444890
C        -0.29537787975034       1.55062207879461       0.95981982013399
C         2.14030239168353      -0.02380205966876       0.36345854132950
C         3.36846348629755      -0.56086804010019      -0.36813035351080
H        -1.11279895512203       0.18524016645707      -1.96575864688968
H        -1.59571069557363       1.70250790792806      -1.15428648240462
H        -0.98313662417666      -0.61791102196742       1.90127036782844
H        -0.13689904597618      -1.68818594769338       0.75358907215461
H        -3.29583711564580      -0.38697501466773      -1.41275221004616
H        -3.26591511926358       0.59148044635282       0.12049941153954
H        -2.90380307841887      -1.55991130099936       1.02931984136130
H        -2.02857224477553      -2.12654918340020      -0.45726480755615
H         1.17385168102392       0.95032538025075      -1.30902963979330
H         0.87422977392419      -0.80884040685982      -1.22017541344816
H         0.12304232416226       2.43137414459858       0.42282464327769
H        -1.30343174095038       1.82620902140649       1.34292381149007
H         0.34351851199187       1.34726494108216       1.84700963075654
H         2.40083125729110       0.96968550375549       0.78730462788044
H         1.90032830748202      -0.70939233650199       1.20214890203967
H         4.23555125860082      -0.58743197138353       0.32458525736065
H         3.17637246388424      -1.59216722440042      -0.73326631460387
H         3.62062757976826       0.09234644927513      -1.23069949748280
P         0.74737483563840      -4.05957287411610      -3.00745141250144
F         0.26024211166440      -4.03213857873522      -1.36059965018910
F        -0.54447272365954      -2.95025251121728      -3.23223176408708
F         1.88814893409636      -2.79032864456061      -2.82099895575944
F         1.16686235058696      -4.00579986730986      -4.67203496575511
F         1.97645454821005      -5.16988693434744      -2.55300645631456
F        -0.24535489882801      -5.39784030614139      -3.42453437001471
