34
C10H21NO2 optimized with DFTB in AMS.
N         0.34917730196299       0.24653783005105       0.09155283049560
C         0.89088551705783      -1.10307058051385      -0.26398438678354
C         1.57302436961693       1.11011474801042       0.27844599916186
C         2.12197824047626      -0.82007214436374      -1.10986992026261
C         2.72437743768169       0.42810925159019      -0.45822720186385
C        -0.42913186201203       0.19065015820586       1.37302629631969
C        -0.48023117075841       0.76920813657491      -1.05011692197695
C        -1.63595145379220      -0.72971737033153       1.31677143476140
C        -1.23604877659201       2.05127185342951      -0.72955438471384
H         0.13021744825021      -1.69027055720933      -0.77850762276690
H         1.17134750972804      -1.60106669454803       0.66715674586616
H         1.75895034485150       1.18692957839079       1.35721860385160
H         1.35538770287930       2.11028795521433      -0.09073382016344
H         1.84145192420107      -0.62454817154172      -2.14795042949069
H         2.80922388401938      -1.66692476598062      -1.09260171569077
H         3.50090184528061       0.14256396679707       0.25495643331231
H         3.17135455694055       1.08818377848221      -1.20306279024533
H         0.26633760683562      -0.13551113110797       2.14967299160099
H        -0.71822987234992       1.21816394547011       1.60584140437696
H         0.20913159127710       0.93737989693808      -1.88115020796825
H        -1.17882019254391      -0.02069049043284      -1.33972918302533
H        -2.11461905257259      -0.70337860519628       2.29536755859542
H        -2.36396384583247      -0.40579805941656       0.57418186869808
H        -1.35039447894838      -1.76003908598842       1.10418941770554
H        -1.53218083365087       2.51576553798315      -1.66988286205892
H        -2.13380999502537       1.84509241646336      -0.14944175314106
H        -0.62059816593672       2.75182353686414      -0.16717861698969
C         0.74133007698342       3.86582610918597       4.00868863428455
C         0.75693035300766       2.79044207654334       2.89919772094474
O         1.29755076336217       1.69672485969970       3.16862324086355
O         0.21744664208156       3.10540152735197       1.81284212129004
H        -0.28831601045323       4.16428566749667       4.19999485868020
H         1.19152488269175       3.47933380494962       4.92057308625638
H         1.29560193548245       4.73737121103845       3.66352937877609
