36
C10H12F6N2O4S2 optimized with DFTB in AMS.
N         0.01174897639813      -1.30838073260109       0.30418751348907
C         0.71464033117343      -0.12849300577855      -0.21740340760545
C         1.70288930586074       0.42008023449837       0.81800408395091
C         2.43736684542167       1.63343864499892       0.25808915188963
C        -1.09276073412942      -1.14141628174587       1.05055982549204
C         0.53264407628177      -2.52967746745909       0.10604702263689
C        -1.77312928120308      -2.23190447082250       1.54889276971878
C        -0.11094543089739      -3.65207426926305       0.58594950837067
C        -1.28568968279012      -3.50976013912125       1.31033476708529
H         1.23687689189757      -0.42588948845306      -1.13054289843679
H        -0.03694157644476       0.62450191939536      -0.46940712937627
H         2.41784648528181      -0.36226580200895       1.08218441720554
H         1.15564046230034       0.69650711201086       1.72220664719364
H         2.99837235784033       1.36605341796659      -0.63840588792012
H         3.13528440213734       2.00777086014637       1.00588348788625
H         1.73518270268233       2.42965050125349       0.00732153369037
H        -1.41620373141489      -0.12439284166547       1.23152711735145
H         1.46247137267136      -2.58628571270699      -0.44501784393048
H        -2.65600973480746      -2.07232974552781       2.15341089740420
H         0.33019122025832      -4.62563335311552       0.41727323755655
H        -1.80118584265284      -4.37505945692143       1.70737416023487
N         0.91397923770342      -3.31197211917755       4.15665227931878
S         1.37198327914356      -1.99475992471483       3.39743122066180
S         0.11268077380556      -3.09984371033330       5.54531577928277
C         2.72903377170315      -1.09720854012116       4.34969492652622
C        -1.69119370378089      -2.94920105667361       5.05060173418703
O         2.04980251042304      -2.43573753435522       2.18729210777061
O         0.34736009585873      -0.97305908891518       3.20648205994822
O         0.42184656584518      -1.88191350676119       6.24535098586945
O         0.15134358254139      -4.34857481457356       6.24977354198270
F         2.24079497860607      -0.08246171713468       5.03054164923975
F         3.59534733182419      -0.62560699512092       3.45656918120931
F         3.35974374655901      -1.92197692644697       5.16119379084550
F        -2.47254732140641      -3.18781281252737       6.08688253328531
F        -1.96526968036456      -3.85138679638743       4.09980806646537
F        -1.98875567042664      -1.75236692483636       4.56022530262016
