66
C18H34F6N2O4S2 optimized with DFTB in AMS.
N         0.40098372095756       1.87287669577228      -0.48433359011231
C        -0.01481427278208       2.57298512982512      -1.74513940878286
C         0.59236942194072       2.99927733178180       0.48058727670815
C        -0.67625384713267       0.94584321588777      -0.00315569771744
C         1.69170153323150       1.15144766269899      -0.74590067725392
C         0.82188959747541       3.84611377237629      -1.79114443158203
C         1.23136297556756       4.12159237336327      -0.33560235002210
C        -0.91136704791607      -0.24324332331918      -0.93279374377722
C         2.29377697123512       0.41092586153927       0.44292413687007
C        -2.21845218933103      -0.95396089948007      -0.56986827502262
C         3.51651041825202      -0.36835110647948      -0.06060183976651
C        -2.48424697437263      -2.09557185431055      -1.55638681886602
C         4.17070707980092      -1.16971129702790       1.06738407183414
C        -3.80102836869988      -2.81056680192631      -1.24065255659447
C         5.37469773238342      -1.96213216561003       0.54813533128786
C        -4.06583253013199      -3.94313788593041      -2.23117902148026
C         6.03505754794563      -2.76796649769774       1.66524634377729
H         0.16129844469410       1.92530625519654      -2.59976565166398
H        -1.08089267625962       2.79531881641140      -1.67050468003182
H        -0.39565350407713       3.29378329534232       0.84259917713396
H         1.19809221853403       2.66932219680320       1.32376721849482
H        -0.39782626888119       0.61200041734461       0.99977733809521
H        -1.58718172237316       1.54612942422248       0.07732580171664
H         1.48722794579546       0.43817907902065      -1.54130122597522
H         2.40038699382105       1.88821447124481      -1.12684279872163
H         1.69866371639635       3.70134519499864      -2.42515005965388
H         0.23439809451917       4.66536730872540      -2.20760427933959
H         0.86653907164063       5.08975503495458       0.01171996430986
H         2.31761692007732       4.10915071634907      -0.22656781147611
H        -0.97193609333346       0.09640449069044      -1.96754355758306
H        -0.08358317486015      -0.95194582169822      -0.86080550993127
H         2.59938294068314       1.10531582344498       1.23160519132377
H         1.57234416899993      -0.29118999345118       0.86881408951992
H        -2.15851395994808      -1.34667592037917       0.45147506440049
H        -3.04697733977198      -0.23788225116055      -0.60658801788829
H         4.24318959862198       0.33273606185034      -0.48317215644386
H         3.20296224093041      -1.04677791318780      -0.86041331984990
H        -2.52139777591942      -1.68986070579197      -2.57229108671921
H        -1.65720238100862      -2.81187201153491      -1.51302513227247
H         4.49425285665574      -0.48743503062525       1.86150430882459
H         3.43610838085795      -1.85896149576351       1.49817886417416
H        -4.62550143897803      -2.09043977945488      -1.28228741012487
H        -3.76263487895580      -3.21620223300822      -0.22337603163815
H         5.04660890949731      -2.64062515743715      -0.24601003085493
H         6.10565381642799      -1.27024589563550       0.11654678092727
H        -4.12640359302921      -3.55334924897901      -3.24794773433181
H        -5.00730467397639      -4.43810887837660      -1.99141586323501
H        -3.26400804502863      -4.68166018618062      -2.19015369760041
H         5.32729448018597      -3.47893771658706       2.09393081269963
H         6.88785204496497      -3.32134743734692       1.27177378914578
H         6.38603852478974      -2.10643748628101       2.45873345033432
N         0.61852397476695      -0.15520383697233      -5.40859764255690
S         1.60389413271613      -0.08051754183192      -4.15862262196756
S        -0.69394341681594       0.76932659228789      -5.31259391663140
C         3.10533100879227      -0.84767953033342      -4.92541851354420
C        -0.13453647357681       2.51096533015817      -5.75854609951138
O         2.00918670279708       1.26005642439613      -3.75029626480326
O         1.26012753616269      -0.97425645743288      -3.06179653620179
O        -1.25408587180894       0.92057300592588      -3.97954989483743
O        -1.57551213196324       0.38661011200980      -6.37709657726353
F         4.01618423804790      -1.01655904750724      -3.97572109303411
F         3.60411213531157      -0.06171951350659      -5.86249447303362
F         2.81538182251011      -2.02258164374900      -5.45370504520118
F        -1.04640604471093       3.09452893509917      -6.51706969067338
F         1.01542192367250       2.48638818103676      -6.40949495753103
F         0.01735295838276       3.24084855643648      -4.65341001707399
