40
C12H8F18NP optimized with ADF in AMS.
N        -0.21674788122949      -0.63802239530688      -1.00683815828624
C         0.89248699339613       0.12379121172849      -1.14618417767152
C        -0.25077191219900      -1.90289131710960      -1.48157002123093
C        -1.40917757939673      -0.05965844853769      -0.35750530180932
C         2.03011346908467      -0.39324822277222      -1.73027325997393
C         0.86606167326786      -2.46195450770388      -2.07132130140392
C         2.02783058168433      -1.70715814488830      -2.18822967673776
H         0.81946108369737       1.14863530306532      -0.78820788504430
H        -1.19540333282666      -2.43291686249246      -1.37865514484461
H        -2.06091500106596      -0.87430597478751      -0.02563047936601
H        -1.08588579667658       0.52777463765096       0.50925198836275
H        -1.93410870859811       0.57269395721409      -1.08198643539437
H         2.90322635191736       0.24704492818286      -1.84835884189897
H         0.80621188560639      -3.47936556285782      -2.45679414885188
H         2.91347771933141      -2.12510342389152      -2.66808743287243
P        -0.93656523734218       0.45385322262611      -6.53925379007701
F        -2.19492858098471       0.79831905461227      -7.55447870195520
F        -1.76086182400768      -0.77494312124863      -5.76029051954506
F        -0.03126130824737       1.66398418623024      -7.22834989354071
C        -0.43027223410895      -0.86832948492888      -7.90590448049092
C        -1.84622311108827       1.75918266815271      -5.25077529332853
C         0.63448451153393       0.22038044386170      -5.25808264532274
C         0.12997916901655      -0.37708517713790      -9.27518248090655
C        -1.97578226542076       1.56303692811538      -3.70125394162021
C         2.03196139121133      -0.41384505693530      -5.55998677617005
F        -1.54759899109967      -1.60571969211523      -8.22711157938099
F         0.49412010556929      -1.78211391277514      -7.42758125924416
F        -3.17959197680322       1.80810322208995      -5.60972247910425
F        -1.34602848250099       3.03544990920622      -5.39106171881475
F         0.20096023029601      -0.46744399088218      -4.12226901397277
F         0.96348490402815       1.49753093348033      -4.84040879243349
F         0.31412260975540      -1.45749350560766     -10.09233777181072
F         1.32927956161177       0.23955307117658      -9.15119674433436
F        -0.72457152610592       0.46579150715720      -9.89208951464945
F        -2.87816940565572       2.45343757252308      -3.19686266707433
F        -2.42242565976312       0.32022954022745      -3.36545133438485
F        -0.82118512381592       1.78119039952093      -3.00348729501545
F         2.02871697741230      -1.76711152229686      -5.43887928936612
F         2.94922982489864       0.02847672309103      -4.62230645370362
F         2.50416710281811      -0.06222431833726      -6.76225489263024
