24
C6H15NO2 optimized with ADF in AMS.
N         0.02716196144628      -0.14119527690479      -0.27607832063991
C        -1.11479873258103      -1.11796144778080      -0.25462200287873
C         1.12316974322804      -0.69236473480037       0.60118816841204
C        -0.40041363249045       1.19420570151910       0.23049120588520
C         0.50450780273541      -0.01866050318502      -1.70153560716870
H        -0.70553823812548      -2.06474428017361      -0.64679653627949
H        -1.46309725904982      -1.22747803861188       0.78132819702157
H        -1.92099771233831      -0.72950462330733      -0.89179105509997
H         2.02023298518918      -0.07573146564106       0.47324102953369
H         0.75310351875202      -0.67081949400833       1.63683183911383
H         1.32745185828617      -1.70929896156027       0.22793124791590
H         0.46465358562914       1.86967341064806       0.19724599788605
H        -1.20449785360866       1.58075800123470      -0.40979580693179
H        -0.75549289976218       1.08796100177918       1.26398528337053
H         1.42824409551076       0.57066416427485      -1.71446364637773
H         0.72548036437128      -1.04540305230492      -2.03646272639309
H        -0.30010969493502       0.46509398301534      -2.27456196651560
C         3.09212565010147      -4.00935845497308      -2.23167205108903
C         2.35126208718871      -2.79038159011768      -1.66711686180198
O         1.10938445343852      -2.97696788162842      -1.38546221925525
O         2.99400037334819      -1.71636377299541      -1.52291546909367
H         3.03588746665820      -4.84340337038179      -1.51473854967980
H         2.59834484276957      -4.34775484003711      -3.15588799613786
H         4.14390721283800      -3.77034104455937      -2.44050517079621
