68
C18H36F6N2O4S2 optimized with ForceField in AMS.
N         0.00112808342122       0.00231663072272       0.00159278006665
C         0.84440440441555      -1.02686635922981       0.70654538412409
C        -0.87048218734401       0.68561933869849       1.02172040421110
C        -0.82349861507306      -0.69373098459393      -1.04880152446545
C         0.85412807859478       1.04408641587178      -0.67235799057740
C         1.89373067421354      -0.47932996623710       1.70898547245936
C        -1.93580167755653       1.66419498204271       0.46278527504038
C        -1.89213033477377      -1.68941516555097      -0.52750136124068
C         1.93987158087937       0.51191607468017      -1.64300494417150
C         2.65798455073076      -1.63708388735912       2.36565115594884
C        -2.73607102269101       2.29448176120985       1.61067102572187
C        -2.64133637176140      -2.33322195387938      -1.70215481236549
C         2.72079370323605       1.67900974422617      -2.26163214712176
C         3.69215756546293      -1.12872380435940       3.36606367962934
C        -3.78582097489445       3.27101353104032       1.08811702357529
C        -3.69471284453642      -3.32427590940003      -1.21522314892643
C         3.78714166753984       1.18244294549842      -3.23344262300792
H         1.37049994264289      -1.67174560316594      -0.03209075697855
H         0.19501422519142      -1.71411244241689       1.28987697447022
H        -0.24352502266820       1.28301526117629       1.71748518493182
H        -1.38716705544895      -0.06618940873274       1.65892412435423
H        -0.16343731689569      -1.28120216533562      -1.72208952177769
H        -1.32877623274625       0.05039231671926      -1.70392370850890
H         1.34933047620552       1.69191596920077       0.08494843578287
H         0.21599610171102       1.72575332949415      -1.27417101029027
H         1.39944767535635       0.09989497705298       2.51463452208165
H         2.62744846266072       0.17729953593027       1.19926904819089
H        -2.64548671973904       1.13992408668719      -0.20854837941419
H        -1.45269962776846       2.48564603561837      -0.10368268590052
H        -2.63328367908465      -1.17654658722151       0.11809050343589
H        -1.41598409928576      -2.50283826675300       0.05622715332186
H         1.47573457901971      -0.06131523332663      -2.47083550376660
H         2.65906554742940      -0.14631376224799      -1.11519609273452
H         3.17589450803827      -2.23585297364046       1.58504899908914
H         1.94367909704945      -2.30111602666486       2.90022733541278
H        -2.04732268568747       2.84233220250878       2.29066381098511
H        -3.24552749887365       1.49772585179004       2.19523729894377
H        -1.92073315717235      -2.87205611110116      -2.35585551333272
H        -3.14118073112879      -1.54513460285068      -2.30641866842684
H         3.21280281492530       2.26893142825155      -1.45812057288837
H         2.02205450967799       2.34750046445852      -2.81116212417864
H         3.19727846897382      -0.54743106790033       4.17273501505564
H         4.43927689245816      -0.48557912002148       2.85760525784120
H         4.22120359335106      -1.99148755453444       3.82263294563084
H        -4.50742929264099       2.74519960771978       0.42751421928013
H        -3.29999776842219       4.09379711284861       0.52149193149012
H        -4.34157523322633       3.71001403119295       1.94333476224715
H        -4.44678942437797      -2.80807666551494      -0.58156307538533
H        -3.21739416109160      -4.13902068763926      -0.63004273713633
H        -4.21351302915567      -3.77269215418759      -2.08858505465405
H         3.31812386574312       0.60899971289239      -4.06146543589712
H         4.51890472219289       0.53494889351850      -2.70540907509563
H         4.32735353075388       2.05076382746306      -3.66589326971293
N         5.40164397049758       3.16537245892291       1.88037640764647
S         6.37563776219721       2.08634861301381       1.12344541292664
S         5.53707672980550       4.78496455005739       1.66661203323433
C         7.76818345474273       1.72157521082967       2.17319470086510
C         4.31172759945308       5.31941707171007       0.49116547492911
O         5.60766847957146       0.82012022791923       0.87272487775615
O         6.86621101201200       2.64021456311532      -0.18539419492253
O         6.90694707331506       5.14692898354407       1.16289733379359
O         5.28551188040276       5.47716350704288       2.97615495509936
F         8.57862857480161       0.78635553680987       1.55826098583343
F         7.31871667956384       1.21626428849322       3.37856311295385
F         8.49406822334283       2.87490466315125       2.40345728709564
F         4.42812000407217       6.68165593838773       0.28991683525748
F         3.04996311417551       5.03360630212896       0.97734679561184
F         4.49989873871633       4.66111775122476      -0.70914320324686
