51
C13H24F6N2O4S2 optimized with ADF in AMS.
N        -0.01881187535470       0.06953006068803       0.25127654529539
C        -0.74380666827382      -0.62071791571899      -0.88510961734809
C         0.13479922978361      -0.91644719195780       1.40288712399264
C         1.36684696313704       0.45176653166800      -0.25686766787745
C        -0.77473775817442       1.29480130302165       0.74434581611453
C        -2.08194758245621      -1.21247025243005      -0.47417959470736
C        -1.17894841401310      -1.53422779189978       1.84276048455600
C        -1.91077225329021      -2.19883102144349       0.68065784833829
C         2.21929263309114       1.22688985669358       0.72573538472421
C        -0.94896491220624       2.39270060977786      -0.28320011832975
C         3.64945847526075       1.39885963639353       0.20814951733561
C         4.50170725658830       2.15915629522558       1.22397819663837
H        -0.06474521660046      -1.42012874452411      -1.22418626851229
H        -0.84264741665943       0.10964399985001      -1.69989440122487
H         0.59682937245851      -0.37487979855509       2.23290639603480
H         0.83440680900098      -1.68697508309082       1.04277214409987
H         1.20763220908449       1.01484685357806      -1.19016150291877
H         1.84799985862301      -0.50377764635337      -0.52167905496014
H        -1.74772551956205       0.93561865587554       1.09858738848941
H        -0.22621850636632       1.66757803163015       1.62102849731653
H        -2.50460616278057      -1.71190685198829      -1.36213462794712
H        -2.79195544860582      -0.41336337712635      -0.20087318773413
H        -1.80671752195831      -0.77760135065964       2.34002958411986
H        -0.92875153651770      -2.26732178781986       2.62619943261271
H        -2.89019242509470      -2.58327709400668       1.00655466120201
H        -1.32485640533360      -3.06769588875168       0.32686210034911
H         2.27503441289207       0.71402527289439       1.69594552814006
H         1.78646046635439       2.21782145121291       0.93369207431067
H        -1.49507192165388       3.21065374014840       0.21173809478876
H         0.00994308634575       2.80833194436887      -0.62187054358458
H        -1.54043740454924       2.08539910601135      -1.15772285078406
H         3.64303850478875       1.93137918134316      -0.76133641241141
H         4.09314402782737       0.40345062490490       0.02194957806676
H         4.50995567274806       1.63814298608268       2.19378460442987
H         4.09229344696506       3.16627729986301       1.39902835219139
H         5.53774907003252       2.26477233307142       0.87154507334220
N         2.32604594747976       1.03729763534525       4.06026080800786
S         2.94270661291356      -0.11363734946587       5.01684769602559
S         0.84207423879290       1.62351795259634       4.24234733397121
C         2.59548337909392      -1.72252125772087       4.08732731729623
C         0.76366571384974       2.53951583106465       5.91893267947525
O         4.39134415881038      -0.01919951147529       4.93079318006383
O         2.26335367255258      -0.28747303163369       6.29334711064524
O        -0.23550294100712       0.62958098926712       4.30824514937538
O         0.70760838229452       2.70100281475992       3.25433858946281
F         3.24098378946752      -2.74490126148169       4.68725762422209
F         3.03009333056819      -1.64773867072010       2.79241546950124
F         1.26962343742175      -2.02148491093742       4.05719639536238
F        -0.08195691706870       3.59281292982345       5.78156322127759
F         1.98077530573026       3.00545995018637       6.26842091263561
F         0.29274333766972       1.74295808871477       6.89252434812865
