58
C16H22F18NP optimized with ForceField in AMS.
N        -1.44219919297922       0.40780197737695      -0.07614652805970
C        -1.75810491974298      -0.86394039804637      -0.79164576067426
C        -2.52815201380518       0.58332240749676       0.92874628491367
C        -0.12709165036029       0.32938529710677       0.63197748917010
C        -3.01642962194630      -1.46034195635662      -0.17775840222401
C        -3.68437659008148      -0.30552716918306       0.51930530139644
C        -1.46847662427202       1.55591982269406      -1.01971518893982
C         1.10761533060517       0.29647851283780      -0.29988049447661
C         2.37027220481825      -0.08603988051303       0.48357400730251
C         3.61087864706535      -0.06614837930995      -0.41661976674207
C         4.86437727792701      -0.44672755515373       0.36685359962035
H        -0.94161892034329      -1.61677127629254      -0.72367472062016
H        -1.94437105865600      -0.69925364460818      -1.87841270373761
H        -2.86880786459265       1.64012021006624       1.02637676832088
H        -2.20832242613890       0.26125545525563       1.94780094567927
H        -0.10998977865125      -0.57946390902982       1.27821003707140
H        -0.01229282221169       1.20399070937171       1.31316579743325
H        -2.73769801272093      -2.23538049329965       0.57078522588332
H        -3.68043204523685      -1.91116329835762      -0.94657880252299
H        -4.34550557730537       0.23563621233074      -0.19271261717508
H        -4.27601015604336      -0.64470812241919       1.39729542175522
H        -0.78819083138862       1.38790296518330      -1.88293792796023
H        -2.48999668328548       1.70583179013664      -1.43680229599339
H        -1.16201272112010       2.49666300420159      -0.50979136014937
H         0.96114140599024      -0.43051677846848      -1.12576944046763
H         1.25987250207776       1.30396894144159      -0.74417791282767
H         2.24310986855239      -1.10662937810230       0.90792043189603
H         2.51312034274846       0.62994709268880       1.32308416659450
H         3.74890338207964       0.95116287469401      -0.84351003098713
H         3.47768239213934      -0.78524473543291      -1.25417294911422
H         5.04263976380177       0.28136800031991       1.18649606479439
H         5.74357304897684      -0.44168886475689      -0.31092717561610
H         4.75458038897728      -1.46341393579290       0.79909778788243
P        10.11767531789865      -3.43030532369215       1.05324126664532
F         9.98533546021089      -2.03918407220696       0.04809418310985
F         9.92348430060801      -4.89285749116080       0.16216653205087
F        10.65036371610108      -2.16021064574753       2.08451583795127
C        11.77591050459405      -3.54125862362731       0.05305932274884
C         8.22308614495893      -3.12584924829901       0.79193476000370
C        10.18200625871222      -4.31096250361139       2.77306728272035
C        12.75649211430787      -2.34083925650213       0.14787067757204
C         7.25533387785404      -4.18490009580106       1.35999319339992
C        11.57633309575214      -4.65324086187484       3.33570669896491
F        11.47955574510444      -3.69234018909075      -1.29640008083924
F        12.47097751767060      -4.67088707276227       0.43592192510939
F         7.94357981147776      -3.05421352768046      -0.57001013657847
F         7.88091103738700      -1.91131609358248       1.36975645145012
F         9.50874438145734      -5.51585110742127       2.67912323931734
F         9.51747075901298      -3.54240953222201       3.71955430812791
F        13.93156395881536      -2.67896877611049      -0.49976022135719
F        13.07504727004309      -2.02108823685415       1.45006373440870
F        12.24550246530603      -1.21729625294548      -0.47709354186314
F         5.97403154497958      -3.89183836654367       0.92681039302714
F         7.56909414035708      -5.45397701186831       0.91116948315162
F         7.23788339178561      -4.16583276522511       2.74033017921852
F        12.13409686532295      -5.71521095132056       2.64966796487084
F        11.44311791511147      -5.03920056662929       4.65804127922738
F        12.43117297189326      -3.57455939889979       3.29861079683629
