40
C12H25NO2 optimized with DFTB in AMS.
N        -0.34620969202208       0.37093530926677       0.03706915010675
C        -1.26754570383990       1.12088004010426      -0.88420894768546
C        -0.58445221118830      -1.10659745852822      -0.09402122647258
C         1.04928312114702       0.68760840895357      -0.43440113707771
C        -2.73388077466244       0.76065567499753      -0.69572675573249
C        -2.04555257366900      -1.49441475871737       0.08188961974033
C        -2.92508283261897      -0.73849947741568      -0.90944733157360
C        -0.52257207671247       0.82423145486873       1.43883068100489
C         2.17590441491565       0.08176642453491       0.39917411158842
C         3.43884462085940       0.00978556349817      -0.47016445320425
C         4.60955591896859      -0.59109274032160       0.30304784946953
H        -0.96537383405762       0.84257766653192      -1.90192752107423
H        -1.09568177432042       2.18721855830037      -0.71903177592243
H         0.02956796448884      -1.60903979614493       0.65520499194536
H        -0.23239716865178      -1.38170470849967      -1.09333499246563
H         1.13996559030169       1.77673831222627      -0.46033426005651
H         1.11151584018960       0.28852695864111      -1.45313377595560
H        -3.30196045519054       1.32045852607285      -1.44330528416614
H        -3.09684547458341       1.06030617499716       0.29333879220566
H        -2.37959636729246      -1.30855080698278       1.10876525058598
H        -2.11587926849695      -2.56961735754174      -0.10220961930735
H        -3.97371097477322      -1.01049615020749      -0.76775663472940
H        -2.62309539498950      -0.99700218779641      -1.92928495701681
H        -1.55168109950147       0.66394673530618       1.75064880589132
H         0.14379076684606       0.25577095493569       2.08407875872228
H        -0.28161227129355       1.88447081203444       1.49896466229772
H         1.92213772359743      -0.93069127828057       0.72164040333039
H         2.36537424794606       0.68436018599474       1.29397580958043
H         3.70252494191945       1.01517495626795      -0.81497855733383
H         3.22001123596580      -0.60504868988780      -1.34915002111094
H         4.37018320709212      -1.60278596490742       0.63338793594908
H         4.84594302322296       0.01431724178288       1.17995775592144
H         5.49097926551871      -0.63501416973423      -0.33659796438312
C         0.66729610094456      -1.71509803816576      -4.83960883445502
C         0.38262399106714      -1.20999219004362      -3.40874291205585
O        -0.73085845989034      -0.67665010770518      -3.20580220151395
O         1.29199466990480      -1.36236229221567      -2.56303375395571
H        -0.26591471984646      -1.93935634922603      -5.35261034247189
H         1.19073404756842      -0.92741067770151      -5.38132050186041
H         1.30225442853653      -2.59833899139184      -4.80324424525865
