38
C12H19F3N2O2 optimized with DFTB in AMS.
N         0.64648429119641      -1.60300242485584       0.91996840581811
N         2.59147850341194      -0.68313782377867       0.97012212700387
C        -1.80379665168984      -1.78545757322478       0.71946573619626
C        -1.94150788537417      -0.48518613904125      -0.07839577253902
C        -0.45356456915161      -2.45441521951795       0.47960241434380
C        -3.29881184761651       0.17962499596162       0.17094054890238
C        -3.43999490411797       1.47359093257028      -0.63677839362600
C         1.69133176248933      -1.25512040098270       0.17280237702833
C         0.90241636848332      -1.28621760294811       2.22715927107504
C        -4.78958072986358       2.14330985674995      -0.38417935098107
C         2.12980271231456      -0.70591069607348       2.25869523913375
C         3.96978888386784      -0.40179290728219       0.60875548448663
H        -1.92785364341916      -1.58063669555892       1.78700313950964
H        -2.58529485204415      -2.48970032661874       0.42103968944296
H        -1.82834764365407      -0.70000248357224      -1.14670260084586
H        -1.13883675176854       0.20305417121822       0.20955985429565
H        -0.30112199533972      -2.67103945032698      -0.58019079142651
H        -0.36308722656703      -3.38701275170061       1.04730774129949
H        -4.09976181375540      -0.51414606179699      -0.10593126621543
H        -3.40350992320466       0.40118361824207       1.23860858107598
H        -2.63397947467331       2.16313876815191      -0.36280892937641
H        -3.33880726296338       1.24888079045363      -1.70399942775058
H         1.80044377170918      -1.42801877323246      -0.88374980406133
H         0.21996499670059      -1.53331735216994       3.01956819652823
H         2.72339199885187      -0.34947397319065       3.08095487315275
H        -4.89969540994398       2.39546514669511       0.67143143333022
H        -4.86779675147739       3.05920336637512      -0.97021729740738
H        -5.60560541973811       1.47773703186467      -0.66877623502602
H         4.57640019925047      -1.22499423204878       0.99587717747142
H         4.05405783444640      -0.35420721596900      -0.47484144323029
H         4.28058834901430       0.54041676694392       1.05773541378123
C         2.72282272945553      -3.59628530479782       1.76647289033620
O         1.61020848110287      -3.87594433032439       2.19390679035176
O         3.65626109451662      -2.94277739471063       2.21524685722003
C         2.96018716955884      -4.07163673139893       0.21088255503203
F         3.52394175163980      -5.26918357110455       0.03539761614240
F         3.73660971364997      -3.16860464239962      -0.44812144007476
F         1.78493013480276      -4.08386052200025      -0.47502070509753
