32
C10H15F3N2O2 optimized with ADF in AMS.
H         1.24828109861958      -0.41002673939877      -4.23894807043983
H        -0.17036699911333      -1.24072459059703      -3.53274277318917
H         1.46540137744521      -1.92732038990006      -3.29868007579595
C         0.88766704093937      -0.99815149032564      -3.38540308863389
H         2.60046641920480       1.49051609478039       0.24871390127878
H         3.17141106128253       0.09987661113289      -2.15717377771374
H        -1.00660457700463      -0.10056649984208      -1.46683925823398
N         1.03562094085600      -0.22102846030485      -2.16215653440111
C         0.04019173431597       0.14120837065293      -1.33646949142475
N         0.57756832487878       0.84541981691330      -0.33010497043321
C         1.94479024499744       0.93617127555304      -0.49459474434560
C         2.22618051702108       0.26560478944142      -1.65378543662241
C        -0.16012225096203       1.37589861362502       0.82934408736436
H         0.55259316099680       2.01448286914941       1.36900285957400
H        -0.98030731254674       2.00695256258245       0.45083582647845
C        -0.66691214799893       0.24560295371493       1.71781540204152
H         0.17577674566863      -0.43953162086698       1.91006174843828
H        -1.44955412502115      -0.32956890383384       1.18767090770497
C        -1.21061554303330       0.76186360029589       3.04787974955415
H        -0.40826222569254       1.31513372283973       3.56213668305488
H        -2.03096837458132       1.47971399155561       2.86508320403432
C        -1.69999688894404      -0.37583505312154       3.93913843052119
H        -0.88089668837788      -1.08234924883101       4.14821612751160
H        -2.51975436475248      -0.93620469482970       3.46087291562344
H        -2.06642705285156       0.00760799342271       4.90293134799778
C         3.90493452898002       2.30036673733169       2.39720057516043
O         3.56293850675952       2.40784212179681       1.17784916209225
O         4.92056383943242       2.65224671592481       3.00204332841519
C         2.78959958753710       1.62866583939310       3.27876124831349
F         2.30794241057578       0.45305312857039       2.71440505132551
F         1.68601705519723       2.46331255006959       3.39434339937392
F         3.16376416697167       1.31384410720538       4.54063023907514
