46
C14H30ClN optimized with ForceField in AMS.
N        -0.06572662739393       1.46258041444111      -0.05174450015909
C         0.52715326132116       2.41494018033714       0.93747292300738
C        -0.72628400614948       2.33300188062553      -1.07247446754588
C         1.01535813766355       0.66077177754414      -0.71170721059499
C        -1.08168031681302       0.60436150668122       0.64027944793720
C        -0.01831751158994       3.79818492164888       0.64286842716561
C        -0.27160823976739       3.75952879359117      -0.83659359918124
C         1.77677837174708      -0.29662778624348       0.23496861518443
C        -1.78965694572248      -0.42652590043866      -0.27014846578152
C         2.99083237595087      -0.90757979310741      -0.47629535773716
C        -2.87918118944492      -1.17387543939492       0.51045398206300
C         3.72506788022711      -1.90009680495856       0.43170481494887
C        -3.60143069411389      -2.19203673480911      -0.37879886665087
C         4.93094292017014      -2.50541747336012      -0.28078629766439
C        -4.66608592643117      -2.95116996173282       0.40806016727399
H         1.63571078220965       2.48075127573502       0.84649847597463
H         0.31498731778706       2.14158039962282       1.99656874962934
H        -1.83585060613797       2.33059790937836      -0.97234974981508
H        -0.50254900123826       2.03302526706265      -2.12204267265149
H         1.75294267626829       1.35210938534946      -1.18278173043706
H         0.60101256628735       0.06151015495030      -1.55231166213947
H        -1.86148732183069       1.25433503977528       1.10199714172629
H        -0.61519177144923       0.05799506240482       1.48974635910782
H         0.70142915719572       4.59920670134240       0.91805687385371
H        -0.97787121739905       3.94931765342123       1.18653889307809
H        -1.04145226207888       4.50011632451082      -1.14355114902122
H         0.67674935999081       3.95000834032997      -1.38747901714833
H         1.10620527826634      -1.12147465430353       0.55490915607091
H         2.12702866521822       0.24166541168010       1.14059266875868
H        -1.05905575406088      -1.17295432954930      -0.64454467468899
H        -2.25549457136348       0.07829671902071      -1.14232238654972
H         3.69083728159642      -0.09498972637496      -0.77190188044812
H         2.65116341091053      -1.43359097486367      -1.39574571850096
H        -3.61964405824561      -0.44298470798307       0.90416613899961
H        -2.41338525742335      -1.70299119757627       1.37111826861467
H         3.03418553512613      -2.71932244063215       0.72800784857050
H         4.07293934527428      -1.38124820366612       1.35149522322455
H        -2.86835363994219      -2.92142701713209      -0.78702340953652
H        -4.08862932113604      -1.66691206590868      -1.22908922478939
H         5.43799359316584      -3.22748933707794       0.39305691843065
H         4.60727700841514      -3.04225770877903      -1.19788971936744
H         5.65417234732887      -1.70909104752367      -0.55790795040462
H        -5.17437959950634      -3.67815040638006      -0.25963671053717
H        -4.20041994673263      -3.50739635466612       1.24938580861785
H        -5.42520424229450      -2.24654133232490       0.80963540239706
Cl        0.25961696124479       4.15715101503350       4.40706766111585
