55
C15H29F2N3O4S2 optimized with ForceField in AMS.
N         3.07150865027402       0.92304055788515       0.00552008883478
N         2.92086573990456      -1.28965204450957       0.18027824656465
C         1.46206827042903       2.77416477123970      -0.25873501996758
C         2.82807229568891       2.33578592125749       0.29022924570931
C         1.01366678896966      -2.62671757387488       1.01131756583632
C         2.51506275072510      -2.60141568284152       0.68369140657497
C         0.30015555097793       2.11224969496473       0.49749259720220
C         0.14782334966744      -2.30569622118488      -0.21772740570619
C        -1.05505683473465       2.54675235444822      -0.06989312510869
C        -1.34288434172962      -2.29588417609711       0.13984750562613
C         2.82479874121236      -0.11310030631883       0.83067111014911
C         3.34725720671632       0.38379748364228      -1.19942487466837
C         3.26150762179729      -0.98858224530269      -1.08920787723181
C        -2.20278054381693       1.87521423679822       0.69469512719025
C        -2.18584041671170      -1.80436228744096      -1.04430697397237
C        -3.55278014021738       2.18642162365235       0.05762170500059
C        -3.66720046539916      -1.74261722370407      -0.68453028347734
H         1.37908125888994       3.87878845634353      -0.16386732098138
H         1.40086724846222       2.51749659795544      -1.33848529692986
H         0.80389225426826      -1.89241359001315       1.81946802724947
H         0.75020219252855      -3.63672505471293       1.39393173446541
H         3.62790914146873       2.94616489923880      -0.18182787496646
H         2.87131186317678       2.51808769726263       1.38666928276943
H         3.09658233703189      -2.83503060017369       1.60122548469425
H         2.74077015938304      -3.38714089349504      -0.07051762249983
H         0.35622392715722       2.38576408336726       1.57417903624424
H         0.37880881562567       1.00791094826702       0.40983312310220
H         0.33360091884698      -3.06270309457900      -1.01119692933307
H         0.42495996870630      -1.30613311487895      -0.61652154273111
H        -1.15572968036833       3.65168748368878       0.01107509163150
H        -1.10802116355648       2.26268272983049      -1.14440523410474
H        -1.50870045285270      -1.62369914337993       1.01029456988283
H        -1.65963939103815      -3.32392450746298       0.42345022892346
H         2.49264230943343      -0.00876415274876       1.85627391516650
H         3.53094269976110       0.94761195431350      -2.10483888982938
H         3.36324066121326      -1.70690629881393      -1.89230248110186
H        -2.05909561252769       0.77426836601926       0.69986011922334
H        -2.20879964675157       2.23058776750218       1.74820413892863
H        -2.05253052872917      -2.48922849681425      -1.91003532072659
H        -1.85229775006084      -0.78717806983427      -1.34659889066857
H        -3.74066772191856       3.28117367293914       0.06676085130121
H        -3.57946867756995       1.81477013949152      -0.98915239217218
H        -4.35742611151126       1.68103931479524       0.63258219854359
H        -4.24194513819469      -1.35620622099970      -1.55266553467451
H        -3.82893508959174      -1.06103948478414       0.17761278694851
H        -4.04499863145138      -2.75532372559178      -0.42859570484840
N         1.28929302561257       5.44929186642987      -5.16753369030936
S         1.45867687453437       4.09492212037441      -4.26490270758958
S         1.11825264775988       6.91868889627789      -4.46828166923401
F        -0.00761894375194       3.71995961883624      -3.54933099325257
F         2.55364270876425       7.34867059540663      -3.72171445372749
O         1.88889362114448       2.95546947567907      -5.14386922882677
O         2.48342170655531       4.32090459560448      -3.18914664472682
O         0.02893182818715       6.86869377266548      -3.43421392948869
O         0.77592596860989       7.93857317618000      -5.51654839410726
