41
C13H24N2O2 optimized with DFTB in AMS.
N        -1.70951401197649      -1.31505104104615       0.07948528367856
N         0.42166980897214      -1.67111169973035       0.28376226760131
C        -3.10033759022704      -1.07457539374641       0.43500659329499
C         1.71347823054812      -1.87786978658709       0.92061631059964
C        -3.67276461860998       0.08633149480137      -0.37892263761742
C         2.73373167925042      -0.84612763010905       0.43070319813967
C        -0.68166652931379      -1.24869526484509       0.96106294951378
C        -1.30611348788035      -2.05395767107180      -1.02754093558867
C         0.01403218819661      -2.27332675868831      -0.90400287783123
C        -2.91766226957512       1.39205660095650      -0.10841607718270
C         2.29846866761698       0.58524590304941       0.75993747587485
C        -3.47857218161754       2.54645843771142      -0.93648111272705
C         3.32874428601126       1.60680189941005       0.28250276306615
H        -3.66181150484949      -1.99491628705851       0.25055895636852
H        -3.13552065709326      -0.85418052440798       1.50514529609823
H         1.56529933678714      -1.79992100449365       2.00121198201831
H         2.06159624235585      -2.88829473495397       0.68586010678394
H        -4.72768828109995       0.20600932945500      -0.11517107003663
H        -3.61687821153841      -0.15633725609014      -1.44484929011299
H         2.86061400903313      -0.95193062690096      -0.65136704439260
H         3.69532023588903      -1.06041991216182       0.90661246191188
H        -0.62312913099299      -0.46198989989380       1.69985926085985
H        -2.00198275218184      -2.33197565001722      -1.79870753267173
H         0.71597982627240      -2.77280687735075      -1.54810171677223
H        -2.98699936879176       1.63863234669861       0.95666153266633
H        -1.85833480814362       1.25162053058085      -0.35028367632360
H         1.33579085654003       0.78840915000720       0.27864162399035
H         2.15964794184174       0.68412722538339       1.84191945211984
H        -4.52944511893142       2.71393359883573      -0.69661751807063
H        -3.39682623501215       2.32697630409026      -2.00193219986782
H        -2.92413832484000       3.46145673320429      -0.72664087759799
H         3.46571024248322       1.53487765618477      -0.79731985745587
H         4.29101969991255       1.43477702303731       0.76654979957508
H         2.99367963921570       2.61568767233719       0.52391102264638
C        -1.52704580190437      -4.59960221932823       3.26768253640233
C        -1.66264893871867      -3.56231774631280       2.14076266461236
O        -2.42811627111172      -3.76732023507202       1.21467253641671
O        -0.90630871239877      -2.54098958779980       2.32456184535759
H        -2.23753056550381      -5.40791998817517       3.11136665734257
H        -0.51162092150477      -4.99243156150029       3.26484765844195
H        -1.71194915710901      -4.11825339390194       4.22621125386799
