48
C12H26F2N2O4S2 optimized with DFTB in AMS.
N        -2.52705807733197      -0.08830638570651      -0.33463387763676
C        -2.69193403654609      -0.64187852948031      -1.73341756668386
C        -3.80958224300262      -0.41594704649001       0.40654281609550
C        -1.37657627492417      -0.75905805546658       0.36454384803322
C        -4.18029825035323      -0.90210061826684      -1.90331083464038
C        -4.60233717580293      -1.34033364926357      -0.50649015242036
C        -2.34122584451275       1.39699091633987      -0.42200104579160
C        -0.03494063343381      -0.64301598118679      -0.35233680389199
C        -2.12711884217056       2.07836361841305       0.92234650621857
C         1.05122590194480      -1.27850560780994       0.52704719626199
C         2.35118094587848      -1.46591853929022      -0.25837218276569
C         3.43204386066970      -2.10651235073424       0.61755833358326
C         4.72742549446778      -2.31744917324027      -0.16397610701173
H        -2.13909998162573      -1.57847660147111      -1.79131557091503
H        -2.28396021941301       0.06418234549434      -2.45621348257280
H        -4.35137112776213       0.51462510235136       0.58445902420442
H        -3.56614670949271      -0.88200995249986       1.36055963748537
H        -1.64891763152931      -1.81106131030606       0.45278393606085
H        -1.31572051528454      -0.33510704307513       1.36868555655534
H        -4.35405423324888      -1.67663459990650      -2.65044849802507
H        -4.70463531198370       0.00981080639154      -2.20321483102661
H        -5.67364156033825      -1.23073968488963      -0.33709322249368
H        -4.31590461634259      -2.37877985793384      -0.32885741873486
H        -1.48231153886367       1.58415348791439      -1.07033834215568
H        -3.23514906381212       1.79434687237155      -0.91001525947060
H        -0.07567696788535      -1.17587759282958      -1.30589261810871
H         0.21963882444073       0.40164915084010      -0.55430532332808
H        -2.18101756338109       3.15527052788546       0.76475432816750
H        -2.89177985144887       1.79825750093875       1.64452869521188
H        -1.14776329700402       1.84390766415702       1.33543140572392
H         0.70167657104294      -2.25359220214522       0.87879223671578
H         1.22655155974708      -0.64637627991791       1.40405306476562
H         2.70222803715659      -0.49678976814066      -0.63101958382563
H         2.15488071995003      -2.10903333636003      -1.12247941979061
H         3.62824863065700      -1.46518879069714       1.48384340961937
H         3.07059166415701      -3.07057787208309       0.98937751461363
H         5.11445124803474      -1.36487924530060      -0.52957774272740
H         5.48062592116611      -2.77507526250795       0.47777733526342
H         4.55461729673436      -2.97271996685681      -1.01866795501593
N        -0.93185579695934      -3.92911804411536       1.05162983148089
S        -1.17921788856838      -4.38055373882246      -0.44496068054883
S        -2.15209188603454      -3.94971098711097       2.07245605483543
F        -2.46783029175298      -3.46196232874590      -0.95608054440174
F        -2.71846223786649      -5.45125090084889       2.06904723392837
O        -0.09961099101375      -3.86791609456142      -1.22877186475648
O        -1.62635840540995      -5.71442071833015      -0.65099130650277
O        -3.27407056359475      -3.14514394149310       1.66115274060734
O        -1.62844934955302      -3.73238774161280       3.37816834251120
