61
C17H36F6NP optimized with ForceField in AMS.
N        -0.52900697298443       1.78303772172332      -0.20283694082463
C        -1.38966386199214       2.32061821004610      -1.30658593986257
C        -0.21175408225800       2.90156079398022       0.74503281421067
C        -1.20758245580951       0.66821999984210       0.54638057704218
C         0.74936916057895       1.32108839047370      -0.84537980895446
C        -2.67606052359732       3.00773669848213      -0.82070581071850
C        -1.45396145739411       3.64232155927738       1.28129829216150
C        -2.34361389977926       4.13923364094507       0.14579677944909
C        -1.51307327709953      -0.60823359203550      -0.27552844647373
C         1.77196052397232       0.63725730568814       0.09639145943595
C        -2.19638483092649      -1.66227417577826       0.60572747443175
C         3.04621330318939       0.26489799307057      -0.67409946911590
C        -2.48339320407791      -2.94587374051979      -0.18229119093148
C         4.05342365751883      -0.45442460231613       0.23140467519920
C        -3.18708366035022      -3.98468624576098       0.69875320855350
C         5.33096861271556      -0.81189207734460      -0.53782983751315
C        -3.45841675264011      -5.27302178586568      -0.07240660134581
C         6.34089428111204      -1.51671669633751       0.36339166054531
H        -0.82314126942182       3.07850471505083      -1.89799955271801
H        -1.66044009192354       1.52984775549984      -2.03688512429824
H         0.34502798368292       2.52773766307914       1.63094945451975
H         0.44133914948794       3.65835438075017       0.25203814465940
H        -0.59885080851916       0.37771627214847       1.43042364907917
H        -2.16754066585203       1.00959272202276       0.97910122993708
H         0.52988453236785       0.62268197860844      -1.68401788121976
H         1.26428345066915       2.18653690082969      -1.32418567525001
H        -3.20904162627887       3.43431383954737      -1.69811039824670
H        -3.36830192685349       2.28029371286719      -0.35018874567508
H        -2.03637526298120       2.99388965019317       1.96826272904294
H        -1.11946491387161       4.51869928772726       1.87852480098651
H        -3.28443297254237       4.55397945663732       0.56675187375146
H        -1.82154880576115       4.95447055078547      -0.40278389805574
H        -2.19375165888180      -0.37424121497071      -1.11866632290415
H        -0.57941860230733      -1.04934924296934      -0.67943929655310
H         1.34532593361580      -0.29211770413532       0.52598262535429
H         2.05426844734564       1.31719343738995       0.92522585548645
H        -3.15286890177251      -1.24893949490719       0.99580188890589
H        -1.53690598689608      -1.90305091994380       1.46847449766235
H         3.51128002042959       1.19057746240099      -1.07954831134539
H         2.78017572440555      -0.39922305747439      -1.52600062023153
H        -3.12989644785150      -2.70610117439280      -1.05526351779645
H        -1.52462197598477      -3.36837633932297      -0.55599214148399
H         4.31242482376195       0.20441585002253       1.08926504112219
H         3.59062741602402      -1.38573119443514       0.62611235666672
H        -2.55197239197472      -4.22217159350454       1.57986340835454
H        -4.15457491197629      -3.57433148015554       1.06177304764980
H         5.08175948704608      -1.48277945803359      -1.38854246953801
H         5.79824726234944       0.11226632981138      -0.94219255812718
H        -3.96889299813794      -6.00202778649588       0.59232865768343
H        -2.50468728974531      -5.72138353890928      -0.42383655704090
H        -4.11394387791022      -5.07027621159764      -0.94603369256079
H         6.66079951425517      -0.84313872306858       1.18708870458574
H         5.89627240873857      -2.43732134215841       0.79717371912947
H         7.23572555044979      -1.80042638748995      -0.23127150868720
P         7.20918158787234      -5.54346831991901      -1.46084214938340
F         7.78534585006966      -6.79145805379155      -0.43125453692407
F         6.37913351074539      -4.88489061112602      -0.11042093962056
F         8.60282170665939      -4.60383735436648      -1.10773398374227
F         6.67123545697909      -4.25811496328736      -2.46513219305024
F         8.00943885443424      -6.30596938521849      -2.77538538658224
F         5.79263359537603      -6.43333669126824      -1.84930370133108
