44
C12H24F3NO3S optimized with ForceField in AMS.
N        -0.23152189085116       0.30797811384226      -0.16576617205430
C        -0.92669453600645       1.29233970072224       0.72696009200612
C        -1.13186563483489      -0.00037164434629      -1.32417285398506
C         0.11738800914834      -0.92828722179000       0.61935113285561
C         0.99547556538213       0.96422843143457      -0.73649293307470
C        -2.32711062402253       0.84186665828612       1.18966667253904
C        -2.52241709439662      -0.51697358637401      -0.91593087248384
C        -3.21654495863540       0.48469032171675       0.00207068329161
C         0.91473524302464      -2.00801711857270      -0.15269948869716
C         2.11988769103175       1.28767586108155       0.27968749343270
C         1.23402615969400      -3.19622470294135       0.75108004193687
C         3.27533697760723       2.01618878042598      -0.40173315447000
H        -0.33332213146068       1.48944625774524       1.64287372255849
H        -1.04681708496492       2.27162134565235       0.20822290441390
H        -1.29609325604342       0.91877063547052      -1.93452351642287
H        -0.66827005506988      -0.72902974934042      -2.02078876886253
H         0.68898616596756      -0.65303959448987       1.53275494274059
H        -0.79348249074855      -1.42167766547393       1.00958082561231
H         1.43102676165341       0.33686957572041      -1.54611058581187
H         0.71431891483131       1.91876409927986      -1.23951993537498
H        -2.25778587681198      -0.01599316218401       1.89040638594418
H        -2.80242057236510       1.67355960585623       1.75344190977332
H        -3.13944860821274      -0.64942544982631      -1.83083297890608
H        -2.45624844493656      -1.51189503704216      -0.42980458612914
H        -4.17125071642872       0.05113582827572       0.37046046652022
H        -3.45652894434923       1.40765824051960      -0.57075375117858
H         0.32817920167730      -2.39252756468652      -1.01095939071398
H         1.87689027256418      -1.60636735125316      -0.52850859789482
H         1.74696274001976       1.93951870212366       1.09440605144866
H         2.52915846305980       0.35870682602575       0.72620791830538
H         1.80139573314007      -3.95862897119717       0.17628679441491
H         0.29655462533741      -3.66059863166729       1.12488021760398
H         1.85238013766167      -2.86998723729531       1.61425051070831
H         4.07614272607534       2.21976225027546       0.34041162519571
H         2.92778853560988       2.98441237846231      -0.82109391713916
H         3.69869794476161       1.39263627257505      -1.21779250482750
S        -0.40384170839802      -1.25968189829327       5.33358054403008
O         0.98420911313394      -1.88458220221113       5.53857065578925
O        -1.20367467670500      -1.78880406471447       6.53355776515438
O        -0.97503658105232      -2.05938503208125       4.15307977558600
C        -0.41729513628862       0.54311221988400       5.12889591620178
F         0.38334128417458       0.89081570981417       4.05929607419295
F         0.06626504726876       1.14268020517933       6.27563341122541
F        -1.70939625494188       0.97293911771149       4.89575019144480
