43
C13H27NO2 optimized with DFTB in AMS.
N         2.52406175719109      -0.52264650418111       0.07116681762544
C         2.38538035130164      -1.84008733478109       0.76018904788340
C         3.67648208220684      -0.71902683635488      -0.86677785622190
C         1.30549650818888      -0.14711645790871      -0.71509424392165
C         3.81734648933600      -2.32803197594256       0.96774636477816
C         4.64774824135274      -1.62983129142027      -0.12306203846169
C         2.86569644128738       0.55824032654858       1.03885899420549
C         0.06422349325080       0.06208744574949       0.14482145668586
C        -1.12222583547817       0.41378435325196      -0.76035610154780
C        -2.39017346323658       0.65740180609406       0.06289695329735
C        -3.57605618855822       1.01272019730615      -0.83955640295529
C        -4.84314184010324       1.26022568798211      -0.02273217446339
H         1.83427717903348      -2.50874106313352       0.09413235152699
H         1.83144907345360      -1.71722989065783       1.69086786706622
H         4.09910837121253       0.27416545235367      -1.09472855137456
H         3.29840284967983      -1.19627440727285      -1.77304857488130
H         1.13250613344907      -0.94134388982542      -1.44666923897137
H         1.56603761414998       0.78574623911816      -1.23447900408948
H         3.86280523445981      -3.41485680516751       0.87848894511587
H         4.17564338982037      -2.05327076561081       1.96211719573609
H         5.45729651366040      -1.04958100843730       0.32373540431528
H         5.08934720488197      -2.35265514005017      -0.81099733824238
H         2.18344146249727       0.52144258025380       1.88546029057905
H         3.88952653714454       0.42390425663572       1.37610319441112
H         2.77620895810700       1.50849837528725       0.50817824421696
H        -0.16630010073174      -0.84123597669024       0.71918428710791
H         0.22792710816972       0.88191345936998       0.84884603786629
H        -1.29564799637319      -0.40288924236170      -1.46966503299780
H        -0.88011655229647       1.31266839258373      -1.33572075429801
H        -2.21232678294590       1.47404730846879       0.77074031244014
H        -2.62764341773323      -0.24141122019466       0.64316755347173
H        -3.33524186959905       1.91026325093996      -1.41870956893870
H        -3.75266826263035       0.19551615321537      -1.54729603708110
H        -4.69336451792278       2.08609389954798       0.67406681556576
H        -5.67194184226013       1.51080897042726      -0.68519509878648
H        -5.11113604075160       0.36954708564127       0.54763356682170
C         4.10362711165781       4.06638895139428      -2.08298364686310
C         3.68725607597662       2.77412846105260      -1.34536099351370
O         4.60938526478045       2.04774357017578      -0.91418754044011
O         2.46025601675516       2.55760207409442      -1.22555078474939
H         4.51174563831426       4.76484213326623      -1.35320850861571
H         4.87792498172081       3.83504388229560      -2.81264145293689
H         3.24411089208069       4.51613099093643      -2.57598246696499
