43
C13H24F3NO2 optimized with ForceField in AMS.
N        -0.22610183380072       0.30956278603415      -0.16171715677609
C        -0.92006780280637       1.28551125734737       0.74186575612680
C        -1.12854981862404       0.00843482558128      -1.31989235860578
C         0.12502127211702      -0.93072888869765       0.61540165145870
C         0.99895938350726       0.97008627686149      -0.73500361417401
C        -2.32722212675419       0.83779438505376       1.19260686915150
C        -2.51902438251704      -0.50925285577636      -0.91933856307437
C        -3.21527578326053       0.48753598926226       0.00129933573367
C         0.91329305503679      -2.01235119125041      -0.16283752828985
C         2.13117906171436       1.28680594515766       0.27385084485830
C         1.21888749155388      -3.20885150322852       0.73684146077683
C         3.28426129192917       2.01833695848116      -0.41226625864364
H        -0.32818915720380       1.46430622085322       1.66496703545249
H        -1.03146094049578       2.27291271030405       0.23752961482378
H        -1.29375523017495       0.93239912306825      -1.92231358126157
H        -0.66667955208620      -0.71902248670119      -2.01831902625570
H         0.70638450865943      -0.66026259097658       1.52411273164335
H        -0.78587298251340      -1.42020954326734       1.01129245919716
H         1.42984308828288       0.34752328889950      -1.55084987760773
H         0.71530417077758       1.92825633114274      -1.23021652482944
H        -2.26615045575665      -0.02444908598709       1.88857319720683
H        -2.80285310912915       1.66817035744890       1.75837853978973
H        -3.13188232477713      -0.63366748842410      -1.83868889021806
H        -2.45514307850892      -1.50765298831342      -0.43993427642128
H        -4.17016539078161       0.05011711658012       0.36511150389146
H        -3.45702906240001       1.41283558354568      -0.56699180919529
H         0.32438862606779      -2.38819557922054      -1.02315972027224
H         1.87866082984559      -1.61515167233175      -0.53642053466269
H         1.76297670727177       1.93261477429768       1.09588307388571
H         2.54328545475819       0.35408245628719       0.70991336121878
H         1.77857785264291      -3.97631863432513       0.16156325088496
H         0.27563710128898      -3.66465714160130       1.10729980245286
H         1.83778652920865      -2.89432524097427       1.60410334452131
H         4.09205133923125       2.21446579142547       0.32450506259099
H         2.93823207846607       2.99083875651222      -0.82305165360208
H         3.70097795019009       1.40044214332446      -1.23623664009009
C         0.33854615880228       1.60073987609187      -4.84026219095345
O        -0.01915032762298       0.57908941600564      -4.27775723839792
O        -0.26728884276056       2.64197882864575      -4.64309157333950
C         1.50536676476200       1.57816058287039      -5.78052578068296
F         1.06540259540484       1.84375100846686      -7.06398266949342
F         2.12023373885150       0.33777972204729      -5.76090167670415
F         2.42353247390376       2.54118004647925      -5.40440094851389
