23
C7H9F3N2O2 optimized with ForceField in AMS.
N         1.10705598064200       0.01441884218625       0.00322739222345
N        -1.11415953324781       0.00866110839391      -0.00088979999119
C        -0.00156722248585      -0.75137518193718       0.00204801893490
C         0.68335244053492       1.29347008791466       0.00057239119659
C        -0.69682940143163       1.28992948167082      -0.00164308989023
C         2.49143018315509      -0.43828701179214       0.00932994092938
C        -2.49648969196226      -0.45091591412921      -0.00104301353907
H         0.00134533660288      -1.83541247075960       0.00350425249221
H         1.32860400951894       2.16271886300703       0.00176627106328
H        -1.34631974431196       2.15602919660233      -0.00259479293620
H         2.53758962224142      -1.54714881950313       0.02297451713673
H         3.00887335029844      -0.06674955576015      -0.89981639395610
H         3.00748540117398      -0.04662341422956       0.91070288005120
H        -3.01536745625424      -0.06989415498097       0.90334204548291
H        -3.01450600266128      -0.07218884129958      -0.90687211632928
H        -2.53884783695342      -1.56078789152420       0.00039244407492
C         3.51981867299258      -4.89028445360317      -0.01217781146788
O         2.40258097463455      -5.38063464793054       0.03245058414724
O         3.72285008777531      -3.91692890908635      -0.71976384688439
C         4.64162979969416      -5.47499908573614       0.79379369449568
F         5.67205219348828      -5.84639321675244      -0.05060210874112
F         4.20907952870280      -6.58823194584241       1.49390387564224
F         5.10618638645311      -4.53052826490823       1.69078736236475
