45
C13H23F3N2O3S optimized with ForceField in AMS.
N         0.21793486408965       2.31298805438891      -0.20830424444602
N        -1.85987987403770       1.51102803854139      -0.19381082868913
C         1.61262256628157       2.50887011427537      -0.60850854471793
C         2.53878721992812       1.48477378652890       0.06859488985821
C        -3.04305765096107       0.74366341590807      -0.58560390329928
C         2.10219995063160       0.04271021890049      -0.22230461673768
C        -3.06100494391233      -0.63806164177606       0.08525284744558
C        -0.74105462997963       1.69118991357783      -0.92399475964121
C        -0.31694558259810       2.54478890536808       1.00792285560923
C        -1.60524024974747       2.04869576692947       1.01652990402870
C         3.06631294936181      -0.98137852953879       0.38098910615964
C        -1.85069481885202      -1.48845902915663      -0.32329852912528
C         2.55756679288302      -2.40303855269195       0.14971317312622
C        -1.89015892206331      -2.86993295097736       0.31985816863761
H         1.93455615506405       3.53667085152027      -0.33449975521909
H         1.70711100480774       2.41133905962477      -1.71244078661785
H         3.57326496564372       1.63914752872041      -0.30873537094104
H         2.54205113658329       1.65879820775795       1.16671202546138
H        -3.95685722875085       1.30235898170415      -0.29287617962298
H        -3.06682602081581       0.61737075354895      -1.69036563388815
H         2.03198484904263      -0.11369486933892      -1.32162507722748
H         1.10527218478330      -0.11883294632558       0.22932367283676
H        -3.99291810253610      -1.16388926931897      -0.21728906284706
H        -3.07923660292953      -0.51356177886543       1.19000029303833
H        -0.59823155394113       1.30232000790552      -1.92455377586106
H         0.20540074370660       2.99609536007314       1.84139469258529
H        -2.28723972880755       2.04080345743258       1.85680832637463
H         3.15953304274633      -0.80867244696508       1.47543541825195
H         4.06984103677807      -0.87271519640105      -0.08400121901168
H        -1.81989444028005      -1.59965213658240      -1.42893895591237
H        -0.92220318455814      -0.98795879126492       0.00609600522129
H         2.47326604264174      -2.61082250127733      -0.93844676484525
H         1.56139732293716      -2.53893738912857       0.62380829960098
H         3.26516583919318      -3.13128192374390       0.59834563074203
H        -1.89460390751311      -2.77880103543975       1.42709701201928
H        -0.98786672989871      -3.44316919632657       0.01730634517406
H        -2.79328328665422      -3.42433506468302      -0.01085711384433
S        -6.63072455305858       4.05381234609033       0.03569652838026
O        -5.30083723233469       3.60962589903856      -0.58935827169416
O        -7.61658260249101       3.95536842078789      -1.13741163100048
O        -6.44463344191523       5.56828867488921       0.20673426658552
C        -7.12261162153723       3.16055085998224       1.53770770720391
F        -6.15894917176834       3.33219448167908       2.51282191528923
F        -7.25416897212261       1.81504841850908       1.25245350631546
F        -8.33029147083907       3.65479995151964       1.99225261964398
