61
C17H24F18NP optimized with ADF in AMS.
N        -0.36326287431792       0.42177108952261      -0.96691628319504
C        -0.97119322764042       1.38622160584289       0.03284299463943
C        -0.91291158346663       0.74397859537383      -2.35305123605374
C        -0.67981580431425      -1.00570841559416      -0.56611236357238
C         1.13680098700694       0.64681234607974      -1.04542529515193
C        -2.49295803565965       1.41811166808893      -0.00837835703261
C        -2.42538862924859       0.74537422085437      -2.42282053605354
C        -3.01357573807870       1.72696704992685      -1.41216676493609
C        -0.01437413622303      -2.07522762235152      -1.41745662155250
C         1.92925234523474       0.37469175205473       0.21957034062880
C        -0.53491633215165      -3.45827072465197      -1.02808079381484
C         3.41319554567627       0.60342203700353      -0.07950357852264
H        -0.59733057478286       1.10339963628204       1.02696650114306
H        -0.56043973249048       2.37478809568650      -0.22860864318040
H        -0.51559644310302       1.73784289136831      -2.59950336040768
H        -0.46174600231136       0.03910637153382      -3.05543475646672
H        -0.38923718870708      -1.10451985733238       0.49118783239972
H        -1.77086948663282      -1.10703416520698      -0.62151147596356
H         1.49345376779893       0.02422987705985      -1.87576231977698
H         1.26163608169690       1.69285091098995      -1.36378350237207
H        -2.90882523110612       0.46415079051150       0.35896586016784
H        -2.81633748507765       2.18934663214915       0.71208410962026
H        -2.67852350681493       1.02757849537276      -3.45822309788916
H        -2.83555530915428      -0.26871233685042      -2.27384198168635
H        -4.11469763478081       1.69456376515403      -1.42629931958139
H        -2.71723988585108       2.75429673256616      -1.69482065781453
H        -0.21476762498642      -1.90215898964460      -2.48458539072688
H         1.07969759231405      -2.04758414043253      -1.29127010623173
H         1.61249430464983       1.04268710043461       1.03776185510299
H         1.78235243046397      -0.66274968861844       0.56298298970392
H        -0.04798445041444      -4.22798701761640      -1.64303408541857
H        -1.62097282455612      -3.53543023545448      -1.19213244777379
H        -0.32947700076039      -3.68837377364828       0.02920356806214
H         4.02284014758674       0.44152270736983       0.82012662088695
H         3.59087371215302       1.63032189511598      -0.43349685062475
H         3.76579083936609      -0.08449956114451      -0.86327165305601
P         0.48103203493359       1.11871737697021      -6.33482502963297
F        -0.38622761163594       2.24627256428350      -7.18563281223130
F        -0.39943481137342       1.50507080998932      -4.94430287257034
F         1.38504157796324       0.69330954249317      -7.65687478090994
C        -0.89338813300025      -0.22349284627065      -6.83489268050764
C         1.75938427805756       2.59976464681751      -5.96173722992924
C         1.46821050962525      -0.22151470032692      -5.18177708219857
C        -1.84504285067013       0.10725891224598      -8.02678353786585
C         1.37849476422537       3.66232276914897      -4.88742450209651
C         2.65426706095039      -1.07875869306972      -5.71436383964404
F        -1.75877854551112      -0.50644344123920      -5.78437581529329
F        -0.29518806176041      -1.41252556879246      -7.18675978023253
F         1.92841228696875       3.32153076496543      -7.12054813279704
F         3.02038338937535       2.16957047443844      -5.60115603204903
F         0.57299471807914      -1.16285448529018      -4.67570269709256
F         1.96836591800191       0.42088027620243      -4.05574603094278
F        -2.59639462777953      -1.00082608491410      -8.30567408988438
F        -1.16295260113329       0.43100011920805      -9.14443349435871
F        -2.70927991500990       1.10529167280413      -7.72289446296305
F         2.30962228901874       4.65640227157865      -4.87407264140585
F         0.17502535752878       4.22573056575753      -5.12222807399061
F         1.35989368452008       3.13336048111792      -3.62226440828822
F         2.26032336445617      -1.94232424838750      -6.66977964130893
F         3.15550329982181      -1.82274131507790      -4.67033027778324
F         3.66066384113107      -0.32446629914791      -6.19146029122262
