61
C19H39NO2 optimized with ADF in AMS.
N        -0.50318843901130       1.72134454435576       0.00506535656715
C        -1.44770097165130       2.39709265561896      -0.96338281947606
C        -0.20231812912392       2.64168798397338       1.18009897964096
C        -1.10235478361633       0.43030507998874       0.55718893736226
C         0.79772743380180       1.44889823605338      -0.73700628544561
C        -2.72325978317152       2.89951537924313      -0.30564583100288
C        -1.46428201120640       3.15493122620218       1.85088649503659
C        -2.41055853035901       3.83295474851852       0.86315367940161
C        -1.20357273825082      -0.72357595438135      -0.42051414219720
C         1.85461032706327       0.75886390265601       0.10417198840516
C        -1.72347064899899      -1.95422812307665       0.33233030586906
C         2.90608001029211       0.05573809512333      -0.75599180036158
C        -1.83735148566919      -3.18304955277966      -0.56596174346345
C         3.83354651646398      -0.80070343651024       0.10919963102035
C        -2.28688570207588      -4.43393145082033       0.18796557998724
C         4.82710271391717      -1.62802385102646      -0.70241905322259
C        -2.39950930052310      -5.65975503126802      -0.71479261551776
C         5.72435694949514      -2.49575129059361       0.17745578144739
H        -0.88877976720436       3.24250726489757      -1.39729035335671
H        -1.65747531055099       1.67285258076192      -1.76302925278500
H         0.38741171165588       2.03397534637737       1.89434138166228
H         0.38909385105939       3.47539290830070       0.76493389501033
H        -0.46737135493225       0.15033300029900       1.41747011915143
H        -2.09449721151020       0.69633993385806       0.94131445547355
H         0.52156938465494       0.83415367661030      -1.60711413963002
H         1.13031156118966       2.43023179772569      -1.11482395569923
H        -3.31040081765910       3.42252421091128      -1.07894141258937
H        -3.33933451020337       2.05019159052760       0.03346460426360
H        -1.96430616882450       2.32703881931566       2.38004478069351
H        -1.14350807950614       3.86244531561189       2.63302704809780
H        -3.34252693801100       4.14083838681479       1.36386540699443
H        -1.93231973622386       4.75061385851280       0.47186780528294
H        -1.86225501740279      -0.49384316817550      -1.27927620642012
H        -0.20642208272674      -0.97755133325836      -0.81364596445582
H         1.39451967059726      -0.01130596346958       0.75312166182628
H         2.33954477527657       1.47942858325546       0.78302832921908
H        -2.70867972104014      -1.73201605391404       0.78424448380486
H        -1.01533629660692      -2.15284734211547       1.15645029888811
H         3.49551680606321       0.77977312850680      -1.35145075746548
H         2.39224311977891      -0.60545277906844      -1.48053219922641
H        -2.54285928171530      -2.98252258244788      -1.39566682248875
H        -0.85275023886585      -3.38051575062913      -1.03078030951735
H         4.38470217896155      -0.14996667271167       0.81392205170007
H         3.20798557809820      -1.46581691072623       0.73251106346197
H        -1.57071327362577      -4.63613569770822       1.00401419136308
H        -3.26234787922961      -4.23840582390612       0.66992057452206
H         4.26931097881546      -2.27409651908847      -1.40568698825442
H         5.45134450056217      -0.95748111522826      -1.32254228085442
H        -2.72457420473885      -6.54646577348336      -0.14945431226607
H        -1.42910062792981      -5.89436254224157      -1.18161962054464
H        -3.12777942315736      -5.48866558852394      -1.52428676399659
H         6.31010230429037      -1.87533214258636       0.87505326492429
H         5.12167483711898      -3.19413537789747       0.78000074118780
H         6.43067970450389      -3.08709427571293      -0.42576592375687
C         1.49855508200177      -1.27761955487169       4.46144785790772
C         0.98753988772855      -0.65532906786043       3.15734636770077
O         0.62747514913379       0.56412599194788       3.20480411164271
O         0.94122937289089      -1.41008389034873       2.13638901837229
H         1.95938374354619      -0.51657462870712       5.10591274626738
H         0.64319974906182      -1.70692307267949       5.00756167704548
H         2.20710498849971      -2.09153444595141       4.25583662869281
