46
C14H26F3NO2 optimized with ForceField in AMS.
N        -1.88866120409512       0.13717585607243      -0.05461876662985
C        -2.10427718872687      -1.07236828400793      -0.90659039665563
C        -3.01032623895644       0.11743829705229       0.93511872298726
C        -0.58247226075212       0.03405631837491       0.67471089485283
C        -3.48107286980429      -1.62869473867710      -0.60128190529785
C        -3.72116284446898      -1.21702763199876       0.82328304051609
C        -1.97266713332451       1.36823813929328      -0.90654416752577
C         0.67057326954944       0.03914078289815      -0.23454123353724
C        -1.74582386003963       2.68864066623541      -0.14855214020170
C         1.94139397408619      -0.17596715638227       0.59883986954890
C         3.19045092293435      -0.21717673765939      -0.28964797331486
C         4.46216226574049      -0.35569275997934       0.55444313665121
C         5.70784462190734      -0.39167567368929      -0.32658127473548
H        -1.37444039323425      -1.88287903979949      -0.67885039733952
H        -2.01452525780198      -0.86468552636842      -1.99742796585944
H        -3.77065702725116       0.90526089746352       0.72791697965830
H        -2.67416067288612       0.27661214754566       1.98560988636919
H        -0.57028295314614      -0.90232281349969       1.27998362093010
H        -0.48258639368285       0.86162977751092       1.41122971781472
H        -3.51911146396617      -2.73383418855422      -0.71829599582360
H        -4.23699423221162      -1.15351175203111      -1.26504257949331
H        -4.80718023949145      -1.13051703510805       1.04556562353109
H        -3.25360961464054      -1.95362146098415       1.51397710105001
H        -1.24285401144620       1.32189295882726      -1.74399279707515
H        -2.97374656551755       1.42326796349998      -1.39362330194097
H         0.60126694113344      -0.76133892412060      -1.00055372241161
H         0.76281309028627       1.01414483069913      -0.75579810123291
H        -1.96645752341552       3.53959472748154      -0.82641957744631
H        -2.41026072010262       2.77478416977683       0.73535855432713
H        -0.69002841878671       2.78840008786088       0.17585601500801
H         1.86149152530841      -1.13422278181879       1.15788501378994
H         2.03789205473644       0.65407474575334       1.33316229629737
H         3.24853540709934       0.71640960180278      -0.89195052623781
H         3.11558127559169      -1.08358935228536      -0.98235134115845
H         4.54384090209004       0.50404716334384       1.25482721016075
H         4.41673176048112      -1.29284891517457       1.15124993755355
H         5.79122751261919       0.54687981936486      -0.91499563471692
H         6.61052898746775      -0.49226474545837       0.31174008141370
H         5.66489958214235      -1.25770361829020      -1.02078440372666
C         4.12060417187099       0.51882294537557      -4.43190250322522
O         5.26948584613168       0.66588875076468      -4.04575757006574
O         3.54982261229206       1.44164600555576      -4.99088334598392
C         3.40982785436663      -0.78566598393548      -4.22849863639303
F         2.25430853843494      -0.57346061205124      -3.49901377942458
F         4.21809631488767      -1.67901538813443      -3.54635515964003
F         3.07775597029099      -1.32636854164475      -5.45707031026661
