25
C5H12F3NO3S optimized with ADF in AMS.
N         0.40660893565391       0.10707434251664      -0.08729747194098
C         0.07585670392415      -1.33834840913687       0.16160527194381
C         0.93607371754396       0.70919662535636       1.18539993977410
C        -0.81500717262427       0.84684222640308      -0.52452993494289
C         1.46009267866315       0.18677882181316      -1.15872644552362
H         0.99790351127578      -1.84429545018148       0.47943515140096
H        -0.68827545236173      -1.38753747470412       0.94777709141939
H        -0.30288983464021      -1.77217790668457      -0.77264613613305
H         1.26969032359781       1.73157665632995       0.96998740235419
H         0.12089569779439       0.71895761881620       1.92100463766747
H         1.76616815595662       0.07615515204772       1.54617670050646
H        -0.54588169777788       1.89591249013534      -0.70144999534072
H        -1.19389329852092       0.39478778052019      -1.44994768770807
H        -1.57329962837573       0.78139530807698       0.26598239193044
H         1.77040596056941       1.23391765463297      -1.25896066278305
H         2.30182752239759      -0.46187124249772      -0.85851061914039
H         1.01850002978891      -0.17359992708161      -2.09705884315202
S         3.84798558108640      -1.95659187753762       1.16595498604134
O         3.32852853092627      -2.02116357282995      -0.22475206753146
O         4.68591828075952      -3.06874618114626       1.59702134892192
O         2.82886394715198      -1.48015682243015       2.13522827449217
C         5.02563569991265      -0.49935807774996       1.07920925250665
F         4.35625241763787       0.63895146578661       0.67975324050808
F         6.02226026933212      -0.71335417721562       0.18614519778592
F         5.58404997162827      -0.23465171843930       2.28524298334336
