46
C12H28BF4N optimized with ForceField in AMS.
N         0.00826228025684       0.00658681483862      -0.00068211708008
C        -0.82624127388143       0.66822535446585       1.06387945273361
C        -0.85284368150440      -0.64046958469469      -1.05313507462290
C         0.85284379271278      -1.05971752723637       0.64568488061703
C         0.86159969112081       1.05844210316231      -0.65833360591763
C        -1.90225836343721      -0.22240861064154       1.73262200714461
C        -1.92077575413338       0.26995576292113      -1.71221596103938
C         1.91251030484501      -1.73031268616880      -0.26702573786733
C         1.93488886880266       1.71966070943952       0.24521663902757
C        -2.67503925339446       0.56048437584803       2.79269598489553
C        -2.72362405845948      -0.50485890559541      -2.75602736011679
C         2.70471925658199      -2.78579936877163       0.50204515796030
C         2.72946387141568       2.76832017927974      -0.53016222083613
H        -1.32753544589782       1.57529946078223       0.65777464736158
H        -0.17498819110556       1.02972573833334       1.88780917518110
H        -1.36609838511861      -1.53666112660536      -0.63882027549127
H        -0.21833000816275      -1.01899240480382      -1.88280304667983
H         0.20589584599814      -1.88124167303649       1.02135078240232
H         1.37065374831330      -0.65557042483010       1.54387891507810
H         0.22257316730972       1.88626650944727      -1.03307285796486
H         1.36712943243318       0.64395264512697      -1.55883580503674
H        -2.63362921573299      -0.58614791657157       0.98866063631532
H        -1.44243333602745      -1.09722833035652       2.23315709125286
H        -2.63655595158933       0.66398635362980      -0.96481475586736
H        -1.44665381788613       1.12726301700754      -2.22924552698112
H         1.43193270300934      -2.23909120597918      -1.12577955425912
H         2.63738091811130      -0.99022836496613      -0.65840913423077
H         1.46633896480439       2.23449574438612       1.10685454474088
H         2.65490110840887       0.97247818053951       0.63232227883390
H        -3.42396010092451      -0.10104747847288       3.27606506830077
H        -1.98350660990785       0.93777128107374       3.57562046721806
H        -3.20800795698877       1.41710291479702       2.32819423332003
H        -3.47870227821066       0.16454651534527      -3.21934410386193
H        -2.05265235029499      -0.88514772744149      -3.55565433870937
H        -3.25144394984478      -1.35975984990336      -2.28247410151824
H         3.45467869413397      -3.25278562169113      -0.17080503590890
H         3.23851339035315      -2.32128971420546       1.35805353204848
H         2.02623002420365      -3.58046437347061       0.87890389289370
H         3.48709497562227       3.23050820038708       0.13737377265231
H         3.25340643843696       2.29922744713571      -1.38956330460446
H         2.05390251367380       3.56771472041808      -0.90246226560591
B        -4.71080213277003      -2.67254275822399       0.89917225508380
F        -5.69083575913456      -3.69301863808009       0.78468391911845
F        -4.51480965259751      -2.35900914880313       2.27000278439818
F        -5.14938212457367      -1.51289517827590       0.20581611003222
F        -3.48747553626947      -3.12560140193924       0.33780995478940
