31
C9H20ClN optimized with ForceField in AMS.
N        -0.05463097347186       0.24064926609054       0.15498896884101
C        -0.99923224080058       1.19150422456750      -0.51445554259718
C        -0.45682983124581      -1.17215234279353      -0.12444140868590
C         1.30396518707245       0.50539211177768      -0.42668189179550
C        -2.48710198131384       0.92840907509432      -0.21327918827842
C        -1.92654108765348      -1.47322202401158       0.21316005875820
C        -2.85940058306305      -0.51757048463188      -0.52027895759458
C        -0.02566610218453       0.50494833706626       1.61969369753527
C         2.45904792585572      -0.35087523160124       0.14951414239608
C         3.78215875613714      -0.01154239860674      -0.53321068816777
H        -0.88057019911340       1.13916493989984      -1.62199637617807
H        -0.76697523930997       2.24137143169761      -0.22265805155829
H         0.15958757084205      -1.88477583339813       0.46441231133102
H        -0.29559402343808      -1.41310292084994      -1.20047209553717
H         1.57322750865484       1.57808809792735      -0.28248207225667
H         1.28330243846687       0.33720937603844      -1.52865042763886
H        -3.10519023364265       1.59764283306635      -0.84967897897042
H        -2.73492552801813       1.17407129607860       0.84016797298686
H        -2.09712309883683      -1.40984672290818       1.30887006291595
H        -2.16196255252752      -2.51431490164984      -0.09645575381408
H        -3.90722375769612      -0.70615207610442      -0.20241801024384
H        -2.79310186973017      -0.69783358752159      -1.61597727307673
H         0.55383388553769      -0.27099071243033       2.16346669710040
H         0.42343929278364       1.49968829171804       1.83808861371599
H        -1.03661470948460       0.49482829729457       2.07103863139736
H         2.58447854733001      -0.16408282016909       1.23552639586998
H         2.26998268016382      -1.43132291056982      -0.01136770677144
H         3.71997007143344      -0.21806744098044      -1.62319388944266
H         4.03672530182227       1.05805909923718      -0.37502095524826
H         4.59299948961062      -0.63566522159177      -0.10141861331792
Cl       -3.71053712417998       4.56505377406425      -0.29599408587436
