31
C9H20ClN optimized with DFTB in AMS.
C         2.62463268174671       0.43854662513422       1.57569724321396
C         1.68959016669188       1.35235338664372       0.79849763689939
H         1.30826902641675      -0.86553382372972      -0.80840621695764
H         0.25196156693307      -1.58877604783998       0.42961284249920
H         3.04081753217729      -1.48728303272972       0.62442870956155
H         1.98133781745362      -1.59296531017868       2.03449130188220
H         2.50082856587521       0.57487088235899       2.65184218663457
H         3.66354562679668       0.65772583744523       1.32508078953383
H         1.38200887741542       2.25903509825438       1.32814370251285
H         2.12095494216102       1.62358244806412      -0.16741000071121
H        -1.20002430400605      -0.21657443623259       1.60386158414292
C        -0.39244483394686       0.49779944227627       1.74467401483131
H         0.21237215463375       0.19922437242239       2.59736979987374
H        -0.78074333551225       1.50745414121840       1.89937705515738
C        -0.27117718770929       1.14564590242329      -0.62767166542592
H        -0.41823162578332       2.19245148086749      -0.33049345110801
H         0.39990746024988       1.10680581642589      -1.48980408079926
H        -2.27516109117247       0.49950494502232      -0.10798391395549
H        -2.89868524274227      -2.13558276905228      -2.77758209709881
C        -1.58420763680847      -0.82121900527410      -1.67843558108884
H        -0.81586616750869      -0.81476013184526      -2.45917188775243
H        -1.32719544089891      -1.60387596313165      -0.95808291878863
C        -2.93884433935928      -1.15535180528913      -2.30261088116853
H        -3.20578854730291      -0.41383687088739      -3.05610624089983
N         0.46496604775408       0.52421994322045       0.52758317335160
C         1.01580278390784      -0.83464402295605       0.24323989357319
C         2.23119095626267      -0.98863429403280       1.16020664588912
H        -3.71657737178914      -1.16996542833068      -1.53835953028739
C        -1.62731075195208       0.54551015228766      -0.98620160981264
H        -2.08024764058947       1.26608930754942      -1.67552262887866
Cl       -0.37682857669440       3.67460699949577       1.40165840617647
