38
C10H20F3NO3S optimized with ADF in AMS.
N         0.90091210511563      -0.01104832617295       0.38405460046748
C         0.97069778188938       1.34504915887642      -0.31506360999131
C         0.03453080328191      -0.95018086388251      -0.42917922257958
C         2.32928986140536      -0.54845883713592       0.43580856153260
C        -0.40081029878927       1.92776367477983      -0.60069875931337
C        -1.34958878389254      -0.38810043884250      -0.71572125000077
C        -1.26050800239972       0.96533764038943      -1.41884458094730
C         0.36551784799371       0.14476709691908       1.76960738693525
C         2.51992935231137      -1.86436389408711       1.16665780550900
C         3.98547247416404      -2.28848190999182       1.02685141951457
H         1.55320646581147       1.17919016036570      -1.23851487132229
H         1.59681913279841       1.99022867610474       0.31868345682142
H        -0.01794570803237      -1.89927091263828       0.12095434136135
H         0.58649556905302      -1.11346633565419      -1.36856746510339
H         2.93112439536988       0.25426184636009       0.89044802412471
H         2.65291753222510      -0.61878080365904      -0.61388233880661
H        -0.23340254790682       2.86830519483222      -1.15138624131466
H        -0.92082933484479       2.20777700156338       0.33237776113328
H        -1.93462805991874      -0.30499271634975       0.21710210192001
H        -1.87547148744326      -1.12598985791950      -1.34501379941032
H        -2.26788707734866       1.38199569504647      -1.57755538346800
H        -0.80291510479619       0.82694492375946      -2.41538000756195
H         0.24822528917717      -0.84612994574105       2.22380759399506
H         1.08362836094880       0.74309722978083       2.34460947015750
H        -0.60198946542323       0.65513289380747       1.74013211696719
H         2.27066531338268      -1.76171654863878       2.23642781140536
H         1.87266712589620      -2.65222391415386       0.74491721814399
H         4.25104556642360      -2.43289012460062      -0.03011697711968
H         4.65829755399784      -1.50904377273300       1.41210908032215
H         4.16989709999427      -3.22482652419789       1.57289494379522
S         4.53871941673558       1.39283966083225      -1.19645029724694
O         5.38794315806424       0.29624222275412      -0.70656800108960
O         4.01647963493408       2.30143211969538      -0.15129763333428
O         3.52267861009834       0.99027313950994      -2.20300650635824
C         5.72154466296867       2.47115135106549      -2.17805073928615
F         6.31181908434183       1.76419611133116      -3.17844717755677
F         6.70381905602886       2.96367188648972      -1.37745707317782
F         5.07413337168415       3.52844204863561      -2.74282180111712
