49
C13H28F6NP optimized with ForceField in AMS.
N        -0.69523442150418       0.53280573294767      -0.20482876157648
C        -1.66715337175773       0.27155785697995      -1.31685705734269
C        -1.25245380104362       1.61380819325971       0.67419229454257
C         0.56494213481268       1.04124554657472      -0.85129270430253
C        -0.43965651420998      -0.70085634602787       0.62017585157279
C        -3.08544197702344      -0.08311794748226      -0.84230195674670
C        -2.67592638904704       1.32935491346863       1.19738445542972
C        -3.64139055564019       1.01782340875630       0.05644895055167
C         1.76047482324318       1.29601607596641       0.10094206299072
C         0.22865187039397      -1.88350716087889      -0.12326283675146
C         2.96641503680695       1.83891232351111      -0.67853315162696
C         0.44623767114369      -3.06481398437813       0.83197936366034
C         4.17088889543570       2.05035781384281       0.23584057573707
C         1.11385846708892      -4.24171321227581       0.12540191665584
H        -1.30762909147874      -0.52891080718127      -1.99580782646684
H        -1.76226595344423       1.17640775647891      -1.96166870030864
H        -1.28775112759775       2.58387503214588       0.12670799419236
H        -0.60882601172186       1.77482219827351       1.56569138004100
H         0.35593051312942       1.99800187130185      -1.38474368175968
H         0.89998656588082       0.34150048425150      -1.64940909232239
H        -1.38122146403553      -1.08729906716858       1.05731967529205
H         0.18436097104650      -0.44689847662115       1.50544056397961
H        -3.10224662529176      -1.06119329336754      -0.31889826109125
H        -3.74474952401275      -0.18507629274689      -1.73139299588125
H        -3.04367676925671       2.22732884270054       1.73980067367463
H        -2.67081970150020       0.49682564769433       1.93112910317378
H        -3.81486587640368       1.93778215038541      -0.54470503723618
H        -4.61855154669944       0.69367177177336       0.47587465366610
H         2.07109921255469       0.35397690635579       0.59675013405473
H         1.48769116576084       2.03861688913670       0.87782965534757
H         1.21491973727649      -1.58465289432062      -0.53243965451068
H        -0.41705871478933      -2.22977090088995      -0.95358572359806
H         2.70122071888047       2.80907246708901      -1.15250968133680
H         3.24956147826086       1.12215884723347      -1.48020234224600
H        -0.53185461329223      -3.40188214994890       1.23931074411875
H         1.09027861079895      -2.74561605401540       1.68005615165895
H         4.47789807009843       1.08817320889882       0.69925204087567
H         3.92626862752704       2.78117058199749       1.03609228178375
H         5.02406124161506       2.44508581396000      -0.35586546133742
H         2.10150668405297      -3.93937525286788      -0.28372277822791
H         0.47132246485608      -4.61221600616202      -0.70033016013927
H         1.26803382342730      -5.07015546282135       0.84887831544736
P        -1.20442297713771      -5.27143599973036      -3.81361890671956
F        -1.77295938959274      -6.60704960704803      -4.73207499926915
F        -0.12839373672793      -6.27046455032406      -2.92164142172443
F         0.03118532780627      -5.01840073136032      -4.97957140863118
F        -0.66081279629171      -3.85970356720005      -3.00296088389288
F        -2.30831582736370      -4.27784007399080      -4.67631202693291
F        -2.37942259793311      -5.54829515717579      -2.59126422696771
