22
C6H14ClN optimized with DFTB in AMS.
N         0.54862521535099      -0.02245084401954      -0.13485341481587
C        -0.36082873897041       0.99919527555502      -0.75017708426126
C        -0.35044253017126      -1.17170045094970       0.24083572790201
C        -1.64298447267616       0.89765935769838       0.05861098821765
C        -1.76674448243100      -0.60092751867397       0.34886302592804
C         1.20469011101059       0.53325052334875       1.07519283623406
C         1.59126767755321      -0.45098212776283      -1.10539225491256
H        -0.54211827551655       0.67891495655712      -1.78157929213066
H         0.11739067153301       1.97853072262312      -0.72309376226062
H         0.01293212624971      -1.61544744892805       1.16919159687547
H        -0.29992572214317      -1.90316690235702      -0.56767275061166
H        -2.48968132775172       1.26535610408532      -0.52246340118219
H        -1.57844143235389       1.47804109973828       0.98331191663283
H        -2.19679835521724      -0.78572070023442       1.33458345027327
H        -2.39291886382413      -1.07431730236309      -0.41074980978097
H         1.80270997599067       1.39721523020087       0.78930653659164
H         0.44486885655280       0.83034559992523       1.79465778320190
H         1.84658046884863      -0.23025137752530       1.51119557366509
H         1.08339865671768      -0.87030646857862      -1.97781410456674
H         2.18301716636989       0.41775946299920      -1.38854582445266
H         2.22329965787407      -1.19998632025324      -0.63204932184277
Cl       -0.98314362659572      -1.34391977178552      -2.80327857810400
