18
C4H12ClN optimized with ForceField in AMS.
N        -0.02897081577115      -0.00266325080432      -0.00318833650506
C        -0.92812570555270      -1.10849275368428       0.39214236847636
C         0.69366773217502       0.49315657884646       1.18821104618948
C        -0.82663131063498       1.09713849439766      -0.58847031810882
C         0.94537843633222      -0.49259139949351      -1.00254832226727
H        -0.35251379724132      -1.94677135934383       0.84514587160705
H        -1.67830557020332      -0.76423973485331       1.13916203874984
H        -1.48061264536725      -1.50754873053400      -0.48808839225883
H         1.37932529186292       1.32788905082362       0.91970459817028
H        -0.01815149125469       0.86645688759716       1.95845943795464
H         1.30346980395774      -0.31595244228084       1.64974458376108
H        -0.17461688086871       1.95114219259182      -0.88042403648496
H        -1.37134230739304       0.75516785317696      -1.49701453429354
H        -1.57790337565588       1.47603045630448       0.14047029650607
H         1.60172708302393       0.33346817061195      -1.35687172123579
H         1.59518055593430      -1.28643777861200      -0.56984222389090
H         0.42706398296765      -0.92060226621498      -1.88976942319726
Cl        4.47745061788927       0.36059685887095      -0.06356377567239
