28
C10H16ClN optimized with ForceField in AMS.
N         1.74404367154993      -0.04440172848814      -0.45264611708306
C        -0.64885496193104      -0.00791180729666       0.10429279553665
C        -2.07558034187222       0.01579037335554      -0.45443652725024
C         0.39077996419446      -0.03033653912821      -1.02044452920539
C        -3.10536548088011       0.03139223165994       0.68110464482135
C        -4.52985504352612       0.06468148014744       0.13583956809828
C         2.37020457013501      -1.23779654210381      -0.21503300913671
C         2.35625800578244       1.13615019459451      -0.12993775471925
C         3.64500125734050      -1.26828107110266       0.35611888640548
C         3.62969197856477       1.14076749477031       0.44479176609550
C         4.27542306646460      -0.07018805105057       0.68737341823329
H        -0.51458103259076      -0.91115682134725       0.73931378368043
H        -0.48384125088194       0.89323807776897       0.73489618888664
H        -2.23883684438726      -0.88428649013836      -1.08761937210881
H        -2.20838340213431       0.92224700112981      -1.08557151381046
H         0.23091846669877      -0.92712536975397      -1.66054337206205
H         0.26022943880585       0.85980334294891      -1.67622354916088
H        -2.94464205885729       0.92670742895671       1.32072069554966
H        -2.98251552999614      -0.87706925542674       1.31054951100979
H        -4.68748861128090       0.97869328577260      -0.47534078371588
H        -5.25018952744423       0.07395569942579       0.98080358561631
H        -4.72525471536458      -0.83336075543109      -0.48796012904924
H         1.88183812220330      -2.17456504954945      -0.45629935385493
H         1.85857983824079       2.08190337122603      -0.30942770584479
H         4.13585631732974      -2.21395961936673       0.54526157881489
H         4.10893298479738       2.07633259897135       0.70196962790763
H         5.26083619371039      -0.08030224969956       1.13533855411256
Cl        4.59720253282900       3.24631793345527      -2.39119413966680
