61
C19H39NO2 optimized with DFTB in AMS.
N         0.52915968323645       1.02732200453564       0.51821437744611
C         0.15525076893053       2.02779426102022      -0.54002066346273
C         1.05998220661412       1.78638907992274       1.70249735029857
C        -0.62582235680101       0.17369310622051       0.94702861178603
C         1.63982840418825       0.20023887515134      -0.07377860941160
C        -0.87317526978838       3.04236618953718      -0.06181005192276
C         0.08021762096360       2.82428372246946       2.23729566965179
C        -0.32981602034638       3.80748791123581       1.14310162407239
C        -1.22769140437962      -0.69955721872156      -0.15213057454463
C         2.19528110256865      -0.89727971107027       0.82870845901571
C        -2.42899946865381      -1.46766302212036       0.41207262521262
C         3.42580619851448      -1.53863857894109       0.16752685857691
C        -3.05635890528624      -2.36719824344321      -0.65704677669443
C         4.65972389896765      -0.63083200044760       0.22239905204370
C        -4.25466410221833      -3.14041639223983      -0.09755167626593
C         5.88394934885905      -1.32550442845865      -0.38063209304953
C        -4.88226062849959      -4.03905324746091      -1.16159546041191
C         7.10110492721840      -0.40221535244748      -0.36017308424524
H         1.08464716385515       2.55028382497176      -0.79289682651715
H        -0.20344262826189       1.47974179869356      -1.41271273417904
H         1.30562525587387       1.06420047923305       2.48316723499298
H         1.97071621268791       2.28871491955143       1.35723442564964
H        -0.27033136160815      -0.45470868782425       1.76762669343078
H        -1.39853973270139       0.83580391045037       1.34130237655574
H         1.25651368130945      -0.23786822860487      -0.99821297264726
H         2.43264401380888       0.91433340627708      -0.34718349002351
H        -1.05115108427228       3.73537631168873      -0.88840037058095
H        -1.82701495840425       2.56126998269827       0.17902660414017
H        -0.80210468522467       2.34458889824284       2.67441859978538
H         0.59378347436264       3.36194409449600       3.03894152407891
H        -1.08762278278937       4.49585282766034       1.52527020843087
H         0.54724916732570       4.38253850907185       0.83299044428722
H        -1.55872381668251      -0.08385837904121      -0.99219500383880
H        -0.49041412948015      -1.41475688958501      -0.52439102301553
H         1.44216001378641      -1.67404244301068       0.99734895358723
H         2.48703924992416      -0.49428758320951       1.80192309663745
H        -3.17715470944169      -0.75646935414355       0.77842347960219
H        -2.10411718013493      -2.07863913944189       1.26112240555143
H         3.19182049052839      -1.78766701384255      -0.87309602834791
H         3.64284027805236      -2.47589304845530       0.69153776563297
H        -3.37994180365544      -1.75306927077274      -1.50432662485167
H        -2.30413566753345      -3.07338904978131      -1.02470967004193
H         4.47057213332126       0.29629348143872      -0.32620869399720
H         4.86612278356243      -0.36615640057620       1.26544859088820
H        -3.92864598204054      -3.75231822181672       0.75035501148983
H        -5.00481156285979      -2.43209075687242       0.27017686060966
H         6.10696995258391      -2.23964358996638       0.18187619945348
H         5.66534262459438      -1.61478864849918      -1.41440931596499
H        -5.73211753686364      -4.57724378506921      -0.74160117239760
H        -4.15510623192343      -4.76645995816025      -1.52497036537385
H        -5.23062544699166      -3.44443275370293      -2.00717124389586
H         6.89402761341122       0.50978067189214      -0.92106362547731
H         7.35566587660571      -0.12819782955578       0.66476088464140
H         7.95963672257272      -0.90165681456153      -0.81042105635545
C         4.65471146114765       4.34272451955026      -0.93664293425602
C         3.50900659381389       3.35532518661189      -0.62266103688393
O         2.56620206967030       3.79584985045081       0.07367195729170
O         3.60480328797489       2.20161548727834      -1.08910481462896
H         4.28269424285532       5.09648423205136      -1.62996388729073
H         4.96687995898731       4.83931859982183      -0.01928239757702
H         5.49638855186548       3.81905838292090      -1.38546575228962
