60
C18H39NO2 optimized with ADF in AMS.
N        -0.18677373263565       0.03306334081918      -0.03431774647146
C         0.65811006991974      -1.05577279469354       0.63555903457871
C        -1.05855151815878       0.68369220100562       1.01686573415211
C        -1.00272671254950      -0.62809422492942      -1.13943230972518
C         0.70380882098809       1.08234485228758      -0.67758074664548
C         1.80253906041429      -0.57940831594084       1.51231507170023
C        -2.03130704998354       1.74677770859735       0.52897858141076
C        -2.07641197409134      -1.59553667399126      -0.67193636353959
C         1.66756086933189       0.53848772483247      -1.71920918282001
C         2.59884369533945      -1.80918313021215       1.96933871443578
C        -2.91177262884393       2.23293426160158       1.68531753791131
C        -2.58783489738342      -2.39174510470906      -1.87979243184601
C         2.78381496984294       1.54601486908115      -2.00503647509298
C         3.78797997822423      -1.43631117348661       2.85048801605843
C        -3.90002755461987       3.31278414031936       1.24916708372927
C        -3.67049422079771      -3.39603476660365      -1.49380622422945
C         3.78086587797370       0.99487197893904      -3.02387521860888
H         1.04661171635001      -1.68984924539859      -0.18180949732133
H        -0.05061450677082      -1.65165827100442       1.22875143116732
H        -0.36997368839109       1.10793553059657       1.76312399564252
H        -1.60939946360543      -0.13731598741605       1.49869412248925
H        -0.26332391950374      -1.21408393308008      -1.72133997390557
H        -1.42992768953472       0.18584677592377      -1.74451627839405
H         1.24676029285385       1.56595742776256       0.14863645510319
H         0.02482680771720       1.82762679574383      -1.11640019021585
H         1.45379244448889      -0.00549251345925       2.39073531812983
H         2.49103813679408       0.06123379377057       0.93785589448017
H        -2.67693859999975       1.34170413008612      -0.26794556632839
H        -1.49179819843112       2.61110787923991       0.10869600222428
H        -2.91853193598297      -1.07852467564449      -0.17661020763565
H        -1.64985033422494      -2.31628591951520       0.04409506357128
H         1.12721336294816       0.31889121460800      -2.65492869454182
H         2.11878440977590      -0.42186897225858      -1.40062768368279
H         2.93916020898750      -2.33443581806231       1.05972547405086
H         1.92830218842756      -2.49729511185807       2.51548543142825
H        -2.26828925653663       2.62242757685102       2.49473967553297
H        -3.46229776212039       1.37432623036760       2.10971174020427
H        -1.72235897023555      -2.91003443835282      -2.32731056201696
H        -2.98104691509933      -1.69152158274704      -2.63964133573823
H         3.31436020345314       1.77480101458690      -1.06152350087435
H         2.35901405576246       2.50214744521108      -2.36672997269876
H         3.46361393201884      -0.93396139077351       3.77694774332780
H         4.47283468517110      -0.75586638263570       2.31880124876840
H         4.36532432794146      -2.32864688986359       3.13652065341931
H        -4.57303177106386       2.93699567560235       0.46192495424704
H        -3.37273367250178       4.19320851157288       0.84880018958202
H        -4.52359266096362       3.65012007400780       2.09063104488927
H        -4.55484829441109      -2.89457320428205      -1.06674181236807
H        -3.29097078395461      -4.10983099886353      -0.74462789424975
H        -4.00260955516329      -3.97837617179241      -2.36673308398119
H         3.28776692485684       0.80653719430804      -3.99089899608307
H         4.19516640432668       0.03720530885499      -2.67146513332044
H         4.61109071172215       1.69656493159282      -3.19758857970404
C         2.46709386103928      -4.19871375205767      -2.87437010084925
C         1.95194166499739      -3.05217123558747      -1.99593922532395
O         0.69103113213740      -2.87199502711843      -1.99783072834088
O         2.80140286034929      -2.38422856235324      -1.33273797825724
H         1.99446246104919      -4.15035561116331      -3.86681558150546
H         3.56036679106858      -4.17166852766500      -2.97377272500895
H         2.17334324168718      -5.16022978435078      -2.42394624020956
