49
C15H32ClN optimized with ADF in AMS.
N        -0.98910838001501       0.84391774570125      -0.17209580594267
C        -1.41498152185654       1.89358207361116       0.85048318702273
C        -2.06902440081017       0.68848084715651      -1.22186901393016
C         0.25753235062777       1.33399536766169      -0.88701052495274
C        -0.72397177500253      -0.46660023043041       0.55815254723893
C        -2.77668421398127       1.59504099396590       1.45082910441553
C        -3.43680804676453       0.37019822625300      -0.63765228571566
C        -3.85920232625958       1.42443955250454       0.38641061798823
C         1.46939650983909       1.56185799182490      -0.00479234527053
C        -0.05771881962209      -1.54652132793651      -0.27222210389163
C         2.69458016826440       1.88751763881018      -0.85848175749689
C         0.04185089144791      -2.83045966175230       0.55680901752698
C         3.92704069946129       2.17338185581702      -0.00026693953569
C         0.74753654178942      -3.95926074919309      -0.19126522775755
C         5.17655444725317       2.43699128255467      -0.83531394895898
C         0.84493969253891      -5.23965418697083       0.63450480923251
H        -1.42185270046562       2.85167731159326       0.30341619678797
H        -0.63972994903392       1.87658406921918       1.65308618063294
H        -1.72935479450520      -0.08700699422581      -1.92331419506082
H        -2.10316225670549       1.64982527244874      -1.76041462269233
H        -0.04179276127561       2.26828343129915      -1.39035713337611
H         0.47031289019729       0.59139195639896      -1.67195439514649
H        -1.70003425319117      -0.81547283033998       0.91689778235615
H        -0.12902076066772      -0.18934459686993       1.46488199527695
H        -3.01381371882677       2.43236825922606       2.12783009331397
H        -2.70202509326418       0.70745206351749       2.10123420502713
H        -3.43560672258905      -0.63359056632851      -0.18011963438405
H        -4.14925061368177       0.32418476654059      -1.47878764031938
H        -4.01867870646589       2.38756058834165      -0.13458980416102
H        -4.82082032005277       1.14525118992125       0.84632644715055
H         1.28088129547651       2.37336759786904       0.71487973179595
H         1.67007739065329       0.68744172772378       0.63425693446619
H        -0.61330820282198      -1.76530821779487      -1.20317496366846
H         0.96188061726752      -1.24130147548420      -0.56272281603086
H         2.49169477874206       2.76157936544003      -1.50753870285959
H         2.91338766211340       1.04176267436155      -1.53875893031604
H         0.57733172719235      -2.60674522507432       1.49668794378717
H        -0.97277829152708      -3.16179537057648       0.84642029708990
H         4.09600072082334       1.31984110120727       0.67954422876825
H         3.71771021275391       3.03881645251957       0.65300712171504
H         1.76128027189602      -3.62406548247056      -0.47693565667167
H         0.21050535452858      -4.16489313989789      -1.13625403429161
H         6.05020822357929       2.63775037384379      -0.19672566261031
H         5.41715532589441       1.56947294658989      -1.47146131484968
H         5.03606358921621       3.30698231619351      -1.49772601397282
H         1.36506867757084      -6.03661249424574       0.08151378945186
H         1.39610074448184      -5.06048659108337       1.57128381006634
H        -0.15667572734267      -5.61220376625459       0.90340269255149
Cl        0.64819723351977       0.88188920251379       3.21262609480100
