47
C13H26F3NO3S optimized with ForceField in AMS.
N        -1.62622785418125      -0.28707555240708      -0.17337444617329
C        -1.91532729367859       1.12336521132863       0.22769342805424
C        -2.62868395788350      -1.20933060666949       0.44813044168375
C        -0.28365637759086      -0.70604412787441       0.35131960607625
C        -3.36291866222247       1.56081948420258      -0.06681498692810
C        -4.09460606323680      -0.82771486508925       0.17405594697122
C        -4.36634545152670       0.61512659672006       0.58690466748667
C        -1.64878219936502      -0.43464367212603      -1.65434967609455
C         0.93717820599973       0.07311369259877      -0.19959150253311
C         2.23559807482378      -0.45959240915570       0.42386072945080
C         3.46571042019630       0.26609097528320      -0.13450284460157
C         4.75488138062098      -0.28539849508005       0.48684107959692
C         5.98448661421711       0.42006783464570      -0.07623281310542
H        -1.24478125457813       1.83302500878119      -0.30304606148986
H        -1.73421979001039       1.25761431403524       1.31916252251959
H        -2.50111906779240      -1.22469335735333       1.55627328651942
H        -2.46921579387824      -2.25479855020214       0.09781280421185
H        -0.26568848175217      -0.61206599247298       1.46207483487065
H        -0.11589799542288      -1.78595631968699       0.12921239522110
H        -3.52114657495608       2.58489015088634       0.33473557465839
H        -3.54268607863886       1.61035566543549      -1.16148954687289
H        -4.35769991606269      -0.98142959708605      -0.89263031291558
H        -4.75603275712920      -1.49942204916994       0.76283887987423
H        -4.29641757908191       0.70490854251947       1.69324662385161
H        -5.39707390246640       0.89854871986667       0.28266807658852
H        -0.99547711813356       0.31428882325630      -2.14918224888074
H        -1.32124699023821      -1.45303531420530      -1.95985383582535
H        -2.65681441513097      -0.27276601907502      -2.08138116406135
H         1.01286574399020      -0.04996660164659      -1.29952919814696
H         0.85208262237491       1.15279871841166       0.04081648125640
H         2.19774412869990      -0.32164895531322       1.52704406356721
H         2.32691223658246      -1.54731011047520       0.20836237367284
H         3.38526915873462       1.35299567620926       0.08762432685303
H         3.50354035598596       0.13187857119900      -1.23825006406223
H         4.83800060603968      -1.37395079270749       0.27519032885934
H         4.73173059099653      -0.14249965503988       1.58922528039448
H         6.03950478926327       0.27483379690521      -1.17464432933670
H         5.94281714488754       1.50730946663744       0.14632798215099
H         6.90148936800452      -0.00378844138110       0.38504268571004
S         5.30393638588115       0.51140563385231      -5.10950604030084
O         4.01295261291164       0.34478680741528      -4.29430796553802
O         5.68032959342528       1.98149127947775      -4.87313187983483
O         4.80318090148029       0.50890840599729      -6.56145491189572
C         6.61279763006924      -0.69127865845349      -4.74519701271270
F         6.15216789004066      -1.96704126224387      -5.00784066111382
F         6.97038646774734      -0.59692776533163      -3.41498311887100
F         7.71446303578418      -0.42699207611863      -5.53587222780490
