46
C12H28BF4N optimized with ForceField in AMS.
N        -0.00034823106112      -0.00064670319800      -0.00011426052602
C        -0.84746841832134       0.63940548641764       1.06806295929457
C        -0.84821866628819      -0.64144646408208      -1.06712330891664
C         0.84876750831573      -1.06737001010047       0.63967832520723
C         0.84574100990483       1.06723378713052      -0.64134040778304
C        -1.91075936350730      -0.27419041209500       1.72863132616106
C        -1.91337543283545       0.27123227457926      -1.72631206984316
C         1.91314609611608      -1.72623204771838      -0.27410072245015
C         1.90948123568165       1.72796348611115       0.27082433932092
C        -2.69577678439805       0.49780344473838       2.78670332152582
C        -2.69903612072980      -0.50154215785528      -2.78326660500262
C         2.69970018680642      -2.78328287192193       0.49774258541498
C         2.68969562600365       2.78732992857699      -0.50245033018266
H        -1.36054889250275       1.54414286020759       0.67091500872597
H        -0.20362415060712       1.00492649669200       1.89724655149469
H        -1.35975963698576      -1.54665858972318      -0.66925897930142
H        -0.20497988983429      -1.00618761941286      -1.89712809128128
H         0.20626419532788      -1.89744705926934       1.00543213050529
H         1.36156519158469      -0.66919741916533       1.54414147582850
H         0.20133749935308       1.89630376573840      -1.00610244214088
H         1.35807764368496       0.67012307198429      -1.54652532794176
H        -2.63541765803059      -0.65792788311779       0.98319363770677
H        -1.43401204749513      -1.13713808662858       2.23567973620252
H        -2.63739342592591       0.65443972701244      -0.97996011401199
H        -1.43837799766026       1.13466319161959      -2.23422444536504
H         1.43724892756999      -2.23386164330292      -1.13717715778207
H         2.63684420351063      -0.97976861003501      -0.65774732867134
H         1.43432084306207       2.23443010028072       1.13496860474750
H         2.63656694874828       0.98378830428723       0.65286833565904
H        -3.44927772742137      -0.17014250381648       3.25477405557218
H        -2.01092371116218       0.86939826988081       3.57929962880430
H        -3.22177039368787       1.35977349431252       2.32346297689255
H        -3.45386705175192       0.16559383945901      -3.25036508060182
H        -2.01482805306595      -0.87242361231851      -3.57675169307680
H        -3.22344683214860      -1.36401929659172      -2.31921839895256
H         3.45433624609812      -3.24978282310194      -0.17003844532060
H         3.22449553624635      -2.31954255685383       1.36017942968750
H         2.01601468267059      -3.57722046290451       0.86861838959949
H         3.43387216285736       3.26083215234272       0.16878666587267
H         3.22202579594892       2.32509296462837      -1.36122464844853
H         2.00315535294871       3.57683602729272      -0.87667889654470
B         6.30384398498293       3.54092085843461       1.60141591541162
F         7.39985301111938       4.40069354025473       1.87673355555423
F         5.17662903407074       3.95197634538876       2.36202785643218
F         6.64789818717587       2.20750879890838       1.94854692855917
F         5.99350516303207       3.60400964783435       0.21729589156433
