29
C7H16BF4N optimized with ADF in AMS.
N         0.69165224062179       0.16592115383730      -0.34754672457882
C         0.02509047246706       1.53067541052491      -0.20060872316232
C        -0.26800454456352      -0.79065854211120      -1.04842166535410
C        -1.30539940437944       1.45265373228025       0.52668773409627
C        -1.60477711908500      -0.90018519929516      -0.33682119544068
C        -2.25539755510274       0.47244977359471      -0.16212841562124
C         1.09922032920496      -0.37165260596150       0.98271167543251
C         1.90795465957774       0.32587456264206      -1.20610998064583
H        -0.12834081943955       1.90200391941989      -1.22577470702140
H         0.75468481388847       2.17020820956034       0.32116149533728
H         0.25739596880255      -1.75704428492951      -1.10908793741943
H        -0.41333018355970      -0.38187786086636      -2.06027752936127
H        -1.73142373354456       2.46935245979208       0.49221611679306
H        -1.16585702595063       1.20150311570868       1.59362942257354
H        -1.50386627838979      -1.42718217171914       0.62915299612326
H        -2.23981523239826      -1.53280749586831      -0.97943446255716
H        -3.18842193401602       0.37932031108338       0.41558789896555
H        -2.50741954775335       0.87019550325490      -1.15797602036972
H         0.21697002608426      -0.50485411309760       1.61514975914371
H         1.59912384234848      -1.33717861369537       0.83183891259375
H         1.78953866948991       0.34100574649623       1.45199281136375
H         1.58227992461953       0.72747327584920      -2.17582396585468
H         2.59815853047892       1.01701219352086      -0.70440515040239
H         2.37903894680057      -0.65881881021633      -1.32639810623178
B        -1.29066051362962       1.61238744480211      -3.63483924659538
F        -1.55891783398626       2.09998337654423      -4.90808969988507
F        -1.95663999918477       0.36893199988807      -3.39375640318461
F        -1.67657186705588       2.54207927466242      -2.61804230506517
F         0.13673880705486       1.37083543179885      -3.47289009737162
