34
C12H16F3NO2 optimized with ForceField in AMS.
N         1.74295485758712      -0.02979601534183      -0.51553287129432
C        -0.63421290899819      -0.01186840951537       0.09700937656178
C        -2.07491967096986      -0.02733395354272      -0.42383331285817
C         0.37746143530106      -0.06517385430203      -1.05182592836386
C        -3.07358641614718       0.02966276758412       0.73807110382564
C        -4.51304457642732       0.02739586537322       0.23221305659606
C         2.37214345079471      -1.19834621935712      -0.18311091144217
C         2.35882292382442       1.17404118853088      -0.30694463579373
C         3.65313279461578      -1.17995204610618       0.37367861565790
C         3.63961196372778       1.22824454506332       0.24781610813468
C         4.28720382821876       0.04245035566754       0.59117092455075
H        -0.47208542090780      -0.88699189414147       0.76407408514931
H        -0.46458606554342       0.91574114283112       0.68678127436352
H        -2.24440990449352      -0.95656897895784      -1.01142369061613
H        -2.23422179200863       0.84854747348945      -1.09084555882924
H         0.22271602605079      -0.99160509740506      -1.64932788630276
H         0.21331161002402       0.79349575122032      -1.74101729598167
H        -2.90395936953267       0.95351834770134       1.33318976476140
H        -2.92481725096590      -0.84888757485632       1.40322541741013
H        -4.69607127246831       0.91148079415377      -0.41486747924466
H        -5.20979780911688       0.06978878343942       1.09586795464532
H        -4.71821111094113      -0.89951484791849      -0.34438229921443
H         1.87968003574647      -2.15136624383297      -0.33736314441799
H         1.85568225903231       2.10025910871077      -0.55901790505691
H         4.14644436190359      -2.10603787583818       0.63963118620310
H         4.12234087573265       2.18249707113186       0.41547691695132
H         5.27562605631128       0.07106052096906       1.02854254985317
C         8.97183207758919       0.19920741897147       0.63093335219045
O        10.06679355038284       0.25455618155033       1.16792437522639
O         7.97468393137735       0.03126848011044       1.31363017095591
C         8.84544207256193       0.33308410768358      -0.85841456761269
F         8.30457203105272      -0.82648071031787      -1.38187532221339
F        10.08475193096987       0.55223332359377      -1.43461067127414
F         8.01531293731616       1.39717633615769      -1.15890851452055
