31
C7H13F2N3O4S2 optimized with DFTB in AMS.
N         1.42812217687980      -0.98633315145142       0.26618411834296
N         0.23168347107679       0.44123064531437      -0.81239563582633
C         2.51157049716894      -1.57590129982493       1.04991192718461
C         2.29685942645361      -1.38984648565256       2.55394208890538
C         1.29094116887241       0.30768713033997      -0.01885837872456
C         0.44067729844965      -1.69035842361447      -0.36676994956374
C        -0.31217005142977      -0.79067490978471      -1.05248156620348
C         2.48178693515099       0.05655250311514       3.00611793516831
C        -0.19297007468334       1.68435378977859      -1.43474929130398
H         3.44421297765939      -1.10496928187217       0.72719653560728
H         2.54488195838442      -2.63925107208445       0.80186077218279
H         1.29841492519980      -1.74709721732088       2.82616153024811
H         3.03074682574440      -2.02245782774228       3.06065257097959
H         1.93549847480849       1.10640029620357       0.30491293553092
H         0.36344921776478      -2.76067015961473      -0.28980882388444
H        -1.17089304214664      -0.92235485119043      -1.68686309273575
H         1.69132235776994       0.69249532004381       2.60674170912294
H         3.44615563169270       0.43955166921123       2.67189971399191
H         2.44419624700763       0.10642538152719       4.09405628560398
H         0.00122158598660       1.62148051645449      -2.50560437604182
H        -1.25674231632669       1.83655368672928      -1.25381506245812
H         0.38683118417767       2.50166920833290      -1.01183527718446
N         3.95749870225964       0.11045757301476      -1.15038619587482
S         4.77637467588518       1.20621257969632      -0.33879291878600
S         3.15935839378463       0.57502510198126      -2.44392039871358
F         3.60121605422676       2.22789578094992       0.20347579455642
F         4.27548287253378       0.76209987348899      -3.58154586687360
O         5.22170147023672       0.57010207681001       0.86092179050511
O         5.65800237113554       2.04629230157811      -1.06956888916815
O         2.50635807067989       1.85040856203518      -2.35845115645851
O         2.37296140549627      -0.54223069065202      -2.87095101082896
