44
C12H24F3NO3S optimized with DFTB in AMS.
N        -0.30544449072578       0.23519224790609      -0.14552113007983
C        -1.18341832339957       0.71885104450147      -1.26528716005625
C        -0.68902449810988      -1.16938303409142       0.20839415701148
C         1.10462513532754       0.22653819520643      -0.68356838926431
C        -0.42641539164220       1.11396557958731       1.07143075707532
C        -2.66809891842199       0.60858647565137      -0.95372711097369
C        -2.16930758671950      -1.32890416446853       0.54178078912874
C        -3.04621196230295      -0.82952233196187      -0.60480619229360
C         2.19397188356148      -0.16143165903475       0.30967750784513
C         0.00886789111617       2.55675899753801       0.86966453979220
C         3.55455977335493       0.01838220253956      -0.38129670779904
C         4.70221229886723      -0.31717908344395       0.56669146791197
H        -0.93781547933901       0.11265101324181      -2.14058945501747
H        -0.90593891697047       1.74997760314934      -1.48592035444664
H        -0.07585047070162      -1.47886785592866       1.05727647605833
H        -0.43715450961114      -1.79331395470227      -0.65376740458937
H         1.30261454715220       1.22719624766369      -1.06402821706260
H         1.10958795583352      -0.46441999114117      -1.53008539287757
H        -1.47210585487328       1.09020697149475       1.38366328085573
H         0.16896850258532       0.64575701500572       1.85872380028773
H        -3.21177062382600       0.92936875744433      -1.84586197236456
H        -2.94664004144424       1.28102831896023      -0.13782077128282
H        -2.41573997289920      -0.79760634344171       1.46509031548333
H        -2.35104792430656      -2.39313381143047       0.71481864815555
H        -4.09794411082036      -0.87967288617315      -0.31332654705162
H        -2.90395436125248      -1.47023228874169      -1.48105191496013
H         2.07780761892425      -1.19933276611234       0.63849126466457
H         2.16349120775494       0.48164694700877       1.19272711201644
H        -0.10621214509605       3.06645662931899       1.82641218774103
H         1.04861061803980       2.63603863317218       0.56048415964801
H        -0.61140355666897       3.06553047604607       0.13525252303814
H         3.64480320017780       1.05600846238740      -0.71749698320918
H         3.60249696695350      -0.62927051427421      -1.26254420004897
H         4.62777280427792      -1.34889624614366       0.91506251680246
H         4.68822693250521       0.34483172440872       1.43356305687039
H         5.65368529512451      -0.19227763748214       0.05038612718804
S         1.73415629551459       3.28601647093846      -2.55135472030507
O         2.33297392485525       3.02299774309031      -1.24441995926536
O         0.61555749307293       2.39286197605877      -2.84908952148320
O         2.66424014555266       3.49053560635269      -3.62739905773131
C         0.88809930743786       4.91579719225824      -2.29814876301227
F         1.72329901342422       5.85042295858917      -1.86639502159230
F        -0.07354668358368       4.76863436925934      -1.37253333421040
F         0.31101381550114       5.34709880849281      -3.41226675719705
