26
C6H14BF4N optimized with ForceField in AMS.
N         0.58626945124917       0.00618885837271       0.00356169972326
C        -0.30641558234429       1.07503662455599      -0.52302515571115
C        -0.30370706134601      -1.06224234107200       0.53436118361546
C        -1.72393719125491       0.75086551806218      -0.08605387339106
C        -1.71955560751103      -0.74547463394048       0.08964370895519
C         1.45099043806817       0.53969668569245       1.08244765278885
C         1.44561450637329      -0.52825788592498      -1.07941290802108
H        -0.29650927867878       1.11499746001372      -1.63797373848453
H        -0.02406541579217       2.09333266575088      -0.16790767011545
H        -0.29816172509116      -1.09445729459742       1.64944056482911
H        -0.01631781855583      -2.08198218272976       0.18695337635229
H        -2.47450515034049       1.07221839464968      -0.84092725813199
H        -1.93969578508969       1.24213874566832       0.88843664383827
H        -2.47465800364265      -1.07436128807202       0.83658821656095
H        -1.91958510430443      -1.23483503704094      -0.88719947563469
H         2.13833171051890       1.32307679674892       0.69140726575219
H         0.83831059299666       0.99592539825171       1.89208101777897
H         2.06787302375859      -0.27032485502430       1.53225903391397
H         0.82895370508738      -0.98450974740038      -1.88605100919160
H         2.06106672601497       0.28113666190527      -1.53228627137771
H         2.13459933337281      -1.31185053060846      -0.69149936449662
B        -4.27983861929785      -1.91852348791787      -3.09839671678771
F        -4.08342319595497      -2.21258066194833      -4.47349070160964
F        -3.45726596581806      -2.76779992246675      -2.31267360609545
F        -5.64124053131116      -2.13374529374012      -2.75746023517255
F        -3.93853315790645      -0.56228326898802      -2.85108160028730
