25
C9H10F3NO2 optimized with ForceField in AMS.
N         0.16543960665764       0.00235500885250      -0.37308516880659
C         1.60946557531523       0.00188425122967      -0.63411257106393
C        -0.50126788363129       1.19007668403729      -0.24309647542761
C        -0.49829150010795      -1.18533181718323      -0.23066217411198
C         2.38322446429556       0.00008970514804       0.68012930078160
C        -1.87099850740446       1.20773327049182       0.03099602490386
C        -1.86587594427065      -1.20305373244445       0.05103357421337
C        -2.55534340322445       0.00191003213699       0.17815026498624
H         1.89569398140230      -0.89137011434163      -1.23251056246032
H         1.89712211859657       0.89567185236005      -1.23089701374278
H         0.02654909968173       2.13124566645240      -0.34254801599722
H         0.03074644433029      -2.12648094393240      -0.32442631633241
H         2.13018787464036       0.90451353565932       1.27335675420719
H         3.47350116914707      -0.00053142131418       0.47275532340114
H         2.12906444764735      -0.90499277140616       1.27190970068119
H        -2.39451727968316       2.14913982444040       0.13560637240694
H        -2.38290105403771      -2.14398273274913       0.17834687756257
H        -3.61551051222455       0.00111036475588       0.39598834759218
C        -4.57965380195844      -4.68373651576292      -1.44465185711539
O        -3.97847167855042      -3.62663657487848      -1.34255425780247
O        -4.00294837353632      -5.66491374719843      -1.88562837802413
C        -6.02120644578971      -4.78102882174617      -1.04186082724949
F        -6.79154760079313      -5.06450898507706      -2.15438396446637
F        -6.45393475117215      -3.58933087576869      -0.48565250893283
F        -6.17633134052973      -5.79284394936145      -0.11203565460276
