45
C11H24F2N2O4S2 optimized with ForceField in AMS.
N        -0.55595162547881       0.09575537443931      -0.09885159577044
C        -1.55775819387378       0.54969200221207      -1.11802051433524
C        -0.89554585489006      -1.30282634002276       0.32347787783406
C         0.77868782550285       0.07798071460080      -0.79226357277792
C        -0.54039566748021       0.99396905227129       1.10812700514152
C        -3.01922432731458       0.45126048776627      -0.65001549891390
C        -2.35012506673828      -1.48030516264663       0.80578622546503
C        -3.34889215515795      -0.97752671502670      -0.23201799712475
C         1.99516793810853      -0.29745199133903       0.09049733463753
C        -0.12202883850036       2.45313735723397       0.84996281167103
C         3.28063684787056      -0.32768401006363      -0.74702204755216
C         4.49009519654352      -0.69715309831206       0.10688003625062
H        -1.47337923188443      -0.07246570179104      -2.03993308434511
H        -1.35815522753585       1.58961610439108      -1.45079302126784
H        -0.24025918909600      -1.63739789286013       1.15633671941660
H        -0.73366272744354      -2.01480277958621      -0.51848454914231
H         0.98400767169330       1.06475050667632      -1.26425348559433
H         0.75200871338898      -0.64259224178801      -1.64266860389310
H        -1.53473427842728       1.03404659522747       1.59328603409307
H         0.12867766128171       0.58017872677120       1.89320213127678
H        -3.68609956257365       0.73984317364363      -1.49113037041701
H        -3.22592840768140       1.15865125728548       0.17914970118559
H        -2.51246302216043      -0.96265880100594       1.77407611932327
H        -2.53826553304029      -2.56093806456278       0.98591222953353
H        -4.37537707937273      -1.01221292440296       0.19299037399294
H        -3.32321099729596      -1.64159351183669      -1.12423256921863
H         1.85424751039040      -1.30039043960080       0.54190547990832
H         2.13188390539363       0.44655322042423       0.90196639075032
H        -0.12231468009130       2.99946187102870       1.81675278213013
H         0.90289846617023       2.52709810274748       0.43666970449302
H        -0.83980808905849       2.97320377404983       0.18545907931146
H         3.45564090384928       0.67187254506908      -1.20154007328297
H         3.17954115166266      -1.07351155893889      -1.56545838039557
H         4.35694148250991      -1.70730733391457       0.54968617119856
H         4.62458991764675       0.04633036903997       0.92001835759767
H         5.40421236900175      -0.70328653091704      -0.52345762181266
N         8.13320370261563       0.92157306238303       0.99059486342366
S         7.50607272160245       1.21307303878050       2.47384926798629
S         9.48729768629583       1.68408060141365       0.47729608634471
F         6.71283727513256       2.68753629411993       2.45424787298183
F        10.81434887226435       1.04552781033145       1.27416783325089
O         6.53237137873363       0.12758401802003       2.83180184478394
O         8.60534013108251       1.26315406172415       3.49725305387180
O         9.39645601340980       3.15298028054198       0.78151603664146
O         9.64894352744454       1.48226978812294      -1.00201941785171
