41
C11H22F3NO3S optimized with ForceField in AMS.
N        -0.89190533450088      -0.16473710200913       0.06674310898397
C        -2.01332352191317      -0.27102295887939      -0.91630399704275
C        -1.23442739897043       1.01514726401429       0.91943427143276
C         0.39076690087770       0.08244361300035      -0.66906567746182
C        -2.84198724512088       0.99565508300434      -0.82992433784514
C        -2.65198326416443       1.44541937140256       0.59182371880390
C        -0.83285222592089      -1.39691290340827       0.91853239148029
C         1.64384071022984       0.19411439231730       0.23431912158916
C        -0.47705282236512      -2.68592542025743       0.15532431486560
C         2.86199498847777       0.61904506109375      -0.59284325953879
C         4.12227377848861       0.71215296725921       0.26175258043222
H        -2.69829976811394      -1.11905021358031      -0.68426469312546
H        -1.66845588812287      -0.42722174996164      -1.96442119935385
H        -1.14489539356554       0.81082532614202       2.01114042624878
H        -0.57766837156025       1.89119405313807       0.71184295979559
H         0.57276402206523      -0.72199519846491      -1.41589156417983
H         0.30019144024010       1.02084601945734      -1.26474248571908
H        -2.43659552326616       1.76167200815929      -1.52758090978725
H        -3.91335861964025       0.80809180233721      -1.06035858351909
H        -3.37127256564411       0.91603731036151       1.25535519192280
H        -2.78727703225829       2.54429441808477       0.69423585490571
H        -0.10017529791143      -1.27155309384209       1.74535869039679
H        -1.81555652706293      -1.55794693101196       1.41891870388179
H         1.48266888387385       0.93517561420487       1.04466586850512
H         1.86632099842722      -0.78904073203256       0.69910545460140
H        -0.58521758889602      -3.55344914123531       0.83982654035489
H         0.57479593716426      -2.66909629425422      -0.19466479249419
H        -1.14845047710400      -2.84888398561711      -0.71203602384484
H         3.03266517252222      -0.12604925275666      -1.39700674654223
H         2.67191551905505       1.60945101300630      -1.06101647377257
H         4.35452193820439      -0.27399002946672       0.71703868953380
H         3.98992112636741       1.46770209558042       1.06493182032906
H         4.97910382891425       1.01774946846493      -0.37594477021178
S         4.60689567554025      -0.07205156241704      -4.32113377001471
O         3.89020708972929       1.11439393995320      -3.66022102458936
O         3.84726611156253      -0.24422395739401      -5.64455303138912
O         4.13841925859738      -1.27618577403141      -3.49098925164979
C         6.40335674081748       0.10398338856898      -4.47838853826463
F         6.96763926106197       0.20725437149808      -3.22183590916525
F         6.69195853338442       1.24077328930674      -5.20771301636116
F         6.91892058550037      -1.00192210043532      -5.12546432209095
