32
C8H15F6N2P optimized with DFTB in AMS.
N        -0.59345956669989      -0.42080982446490       0.50124659708342
N         1.55095566991009      -0.26312816410829       0.38801714949465
C        -1.96295718245988      -0.22088781735188       0.97574320267890
C        -2.86460518984695       0.35519634191223      -0.11802471664059
C         0.48612973511661       0.04741216024361       1.11989026343038
C        -0.20997525585823      -1.03994749881798      -0.65964287672720
C         2.91336547149649       0.18581283368549       0.66737311161327
C         1.14284065541621      -0.93492630291569      -0.73330495994402
C        -2.37116366908417       1.70471481704256      -0.63280783513056
C         3.28774120580233       1.33364575627457      -0.26358003615030
H        -1.90561276922501       0.46718497419729       1.82305688392081
H        -2.34832156233065      -1.18642481378942       1.31930496681098
H        -2.94290646840904      -0.35818463446901      -0.94476553427169
H        -3.86109726142864       0.46783308944152       0.31951645535937
H         0.49611462857410       0.58850267984515       2.04965778506395
H        -0.91472742836992      -1.50168922540416      -1.32819108840095
H         2.93941633129922       0.51636899735654       1.70805431597974
H         3.58547064496779      -0.66743985512781       0.53616548518875
H         1.83647694246219      -1.28388671500090      -1.47808952385010
H        -1.39771183556049       1.59930237577593      -1.11026609919966
H        -2.27780678885308       2.41724017453885       0.18558563334060
H        -3.07856319457575       2.09791384036444      -1.36231974239642
H         3.22680543393896       1.01959603777251      -1.30507476950760
H         4.30795105374761       1.64534836066708      -0.04440743160788
H         2.61794133797434       2.17634294855872      -0.10445614496696
P         0.39970334407817       3.39146093454993       1.65339643913150
F         1.53674702212471       4.34477597297547       0.97920053689010
F         0.39662986105968       2.43674425205311       0.26452440472329
F         1.60546168816932       2.39099667105027       2.25933774315184
F        -0.73240077253549       2.33270257156283       2.30344611847470
F         0.40456840554264       4.24726369900916       3.02976122402715
F        -0.80669872184326       4.28909430397277       1.02547972413052
