57
C15H28F6N2O4S2 optimized with DFTB in AMS.
N        -0.19611077375655       0.56108680927834       0.17263757055252
C        -1.35682434961525       0.05260941340601      -0.62827342836720
C        -0.66325771682468       1.70754989052802       1.02679595328011
C         0.82464627336251       1.08159822073056      -0.81266510767891
C         0.38652794062577      -0.51047678264003       1.05293947311984
C        -2.54183629294540      -0.36219347900887       0.23692257346361
C        -1.83354660446441       1.34002059034989       1.92870084947680
C        -3.00712400592853       0.79794551710208       1.11587397689031
C         2.15504946126707       1.51422304484847      -0.20184420074641
C         0.99038398897195      -1.70649701950907       0.32347431537160
C         3.04650626714600       2.13167538112812      -1.28578695414410
C         1.67245920477413      -2.61341563426700       1.35909484887231
C         4.41870889900980       2.47451579508657      -0.71017647203558
C         2.31450145794338      -3.82508352109403       0.68995379404346
H        -1.00481173828338      -0.78869243963373      -1.22828493011612
H        -1.65503713073496       0.86138133449027      -1.30177087902062
H        -0.95352823799345       2.51298721638032       0.34614442963385
H         0.18039044532725       2.03753350324562       1.63409155876690
H         0.35375263112333       1.92621888865355      -1.32425599276630
H         0.98944396100950       0.29066552221926      -1.54870417858082
H        -0.40457844510238      -0.85510883098879       1.71874691371482
H         1.14836976647741      -0.02700908909859       1.66041866821617
H        -2.28335704959902      -1.22584399388974       0.85452501737145
H        -3.34744361090752      -0.66629477553117      -0.43666003537405
H        -2.13476959364311       2.25069227151982       2.45256754815288
H        -1.52320611780436       0.61469243218237       2.68435266982898
H        -3.41629402894122       1.59314123778456       0.48398425142399
H        -3.79790313741862       0.45589257383137       1.78723136899053
H         2.67365009051283       0.65743483852424       0.23013146966764
H         1.99746131917241       2.24583489053610       0.59234008873618
H         1.73567043729134      -1.38384692942252      -0.40690238419228
H         0.21537202935292      -2.27013093626587      -0.20547251578913
H         2.57207524591360       3.03618486966311      -1.68210506934938
H         3.16034682394246       1.42224002297359      -2.11317858281069
H         0.93180253157901      -2.94567959597816       2.09354542154153
H         2.43840153588832      -2.03791746289268       1.88780209382225
H         4.90750442232106       1.57546316808207      -0.33464646309341
H         4.32098004046276       3.18211678068072       0.11311418849630
H         5.04562719682034       2.91928944779114      -1.48253189607838
H         3.06886777682953      -3.50803268063838      -0.03106254407538
H         1.56396832717673      -4.42258784388886       0.16991556259535
H         2.79521103193766      -4.44811093109900       1.44348726245031
N         3.85186144087472       1.96279426750474       4.19672406216416
S         5.23354171102828       1.13362877828669       4.42073437320011
S         2.69759049991955       1.19496766549111       3.45048043207885
C         6.13637142721332       1.28357776370735       2.78299334735263
C         1.67901628729106       0.19357547193577       4.67465838117964
O         6.03043774063553       1.90307970297338       5.33210325287514
O         5.06468737360049      -0.27642314581184       4.65499112805049
O         3.08247594499530       0.19737088540722       2.46016733813139
O         1.72143523032677       2.17760252645846       3.00597472711133
F         7.44103556324941       1.23630347988528       2.99370231162214
F         5.83989777278096       2.44794937148135       2.21474279588941
F         5.80789133269669       0.31518345305269       1.94244221748889
F         0.49681871809171      -0.05186277705324       4.08087678623117
F         1.44828304903786       0.86978523319851       5.78502308411610
F         2.22963512078213      -0.96518358298720       4.97053230104762
