37
C9H20F6NP optimized with ADF in AMS.
N         0.04986198896493       0.16560343120636      -0.42095941047816
C        -1.05441794908715       0.96620071852379      -1.10170645509818
C        -0.48645252122441      -1.20387183046986      -0.05816130214633
C        -2.32266813060773       1.04738988014647      -0.27705478816512
C        -1.76170009317630      -1.15729366947891       0.77106546930858
C         0.54334563515738       0.86148997008688       0.83602625611643
C         1.17646454140340       0.01299743275709      -1.43887843615612
C        -2.85037992590835      -0.34209667647907       0.07453022709374
C         1.17753936679958       2.21801963840724       0.61063598371733
C         2.40563811356234      -0.71241165262402      -0.93546946398451
H        -1.23679768044679       0.45900792827719      -2.06091220385205
H        -0.64135883405864       1.94832072160316      -1.35355805519254
H         0.31574646868919      -1.73944195713909       0.46766890550900
H        -0.67530450972812      -1.70771873124519      -1.01955843438002
H        -3.05128704218725       1.60609829479604      -0.88681503080398
H        -2.16494245179747       1.64689357259845       0.63650312415338
H        -1.55564434770830      -0.74969413216628       1.77529587634893
H        -2.08522874276846      -2.20060899278000       0.92280929595553
H        -0.32457508154004       0.94993882042533       1.49969632992484
H         1.25000760359651       0.16229808669541       1.30656084567495
H         0.72268185888845      -0.51089902122364      -2.29184346929127
H         1.40642743771673       1.02718394203196      -1.79064528268419
H        -3.74493931600073      -0.27356346024972       0.71344076091063
H        -3.15341514704955      -0.85943494904274      -0.85419898433130
H         1.46828071747764       2.61685059429430       1.59487711381943
H         2.07724825983876       2.16979996741005      -0.01626687512406
H         0.48957350204164       2.93486212410265       0.14364354315939
H         3.11237594216314      -0.76001869114000      -1.77849725938009
H         2.91490163971777      -0.17724276096808      -0.12095336642200
H         2.20579162873414      -1.74738612495141      -0.62125794392080
P         0.35333289954682       3.10333164186952      -3.90816945478385
F        -1.13139702459174       3.27363018213190      -3.16383843004095
F         0.57150934247522       4.72425244005068      -3.87356940905580
F         1.05071923418648       2.99638366292918      -2.36082552876859
F         1.84225254653760       2.87206168335811      -4.56217145387007
F         0.13166688227078       1.43793804614963      -3.87227915196675
F        -0.34779568528749       3.16977726270661      -5.38244305749542
