23
C7H13ClN2 optimized with ADF in AMS.
N         0.24497399394162      -0.79566478940388      -0.30040829622773
N        -1.64982930955023       0.23678193183065      -0.28127647540699
C         1.68026954730648      -1.03378171388237      -0.52033190111649
C         2.49689563969085      -0.68641946286571       0.72312501192226
C        -0.38184396305609       0.31337130063054      -0.72330703472349
C        -0.62646836412497      -1.58204369547367       0.42633132092514
C        -1.82792500207639      -0.93472109051095       0.43567562222350
C         2.34885032745342       0.77968509703263       1.12558974993703
C        -2.66613176330136       1.24789199761863      -0.54182354723579
H         1.95933002143578      -0.37081498079586      -1.36197775843673
H         1.79930232289843      -2.08732471792344      -0.81687879528063
H         2.21703542927447      -1.35609960188000       1.55817404304999
H         3.55025134779194      -0.90991323546726       0.47704853848916
H         0.16688948096905       1.10604696112894      -1.36646256423786
H        -0.32736363901816      -2.52699059390485       0.86349640843259
H        -2.78009157633073      -1.20645165249609       0.87406226085624
H         1.32432581684097       0.99441222804784       1.47044479281063
H         2.55394709249577       1.43905108268945       0.26524376456069
H         3.03545170860497       1.02814578968587       1.94919400979172
H        -2.19515552341991       2.05973444683516      -1.10804207258729
H        -3.48221380686560       0.81171051374209      -1.13329209047167
H        -3.05266239386467       1.63691050213766       0.40989250042058
Cl        1.51055630320436       1.96170265722462      -2.36727532499486
