45
C11H20F6N2O4S2 optimized with ForceField in AMS.
N        -0.40001203908002       0.15920068884256      -0.06741457019903
C        -0.97274494450319      -0.89523593827613      -0.96019531807761
C        -1.45509816780985       0.40677529822178       0.96299320702614
C        -2.43733570656677      -1.07172924211449      -0.60733640191058
C        -2.49890508891986      -0.68643722181854       0.84315588479957
C         0.84117518956162      -0.34717454059967       0.60482766100006
C        -0.15170579295477       1.40420502017078      -0.86444137391960
C         2.01954216244704      -0.63738875498402      -0.35545455979608
C         0.44223633999258       2.57385501770134      -0.05869572086702
C         3.17215711897263      -1.31462719275952       0.38169949706380
H        -0.48502949921875      -1.88561912565339      -0.80925134136236
H        -0.87111572857322      -0.65763510113394      -2.04403067694718
H        -1.98397553969552       1.37407013078702       0.79990765099606
H        -1.05677266553269       0.43813049137184       2.00293956332966
H        -2.78352321393924      -2.11605151074702      -0.76812418514543
H        -3.05846622773872      -0.37295481073362      -1.21072758272720
H        -3.51257631759202      -0.33006753503970       1.12902260244679
H        -2.21231834840442      -1.55424739985457       1.47797461702252
H         0.60343777678058      -1.28265965600865       1.16334803210905
H         1.19013480329707       0.37560798967817       1.37525306497642
H         0.52503313396924       1.19647951906816      -1.72183253404831
H        -1.10519868237564       1.75647084228690      -1.32138080264683
H         1.70211010659925      -1.29811749350554      -1.18827120128372
H         2.40537842727121       0.30721281692295      -0.79118954022318
H        -0.16824818933541       2.80772228294385       0.83681435986237
H         1.48421939889348       2.35936904271351       0.25328621355495
H         0.46723131556802       3.47994354855184      -0.70001027204053
H         3.56425280643731      -0.64659022716469       1.17658115033448
H         2.83600092155841      -2.27069161857934       0.83681689346576
H         3.99447392476646      -1.53248402534302      -0.33185473048541
N         3.67969576465750      -2.49609843417814       3.77007012165981
S         3.23549493970537      -3.94124007448332       4.40128196311293
S         3.68842625569387      -1.11208048462771       4.64729868917708
C         1.49765295514031      -4.19642896260586       4.10829328267265
C         5.34757717588192      -0.78944848043394       5.20688403084834
O         4.00827511974155      -5.03571505752889       3.72080828354728
O         3.50535496385943      -3.97923466243766       5.88010289329551
O         2.77262809896875      -1.22672199849361       5.83424367233978
O         3.24110810777504       0.02795400717010       3.77688038091356
F         1.11715627261931      -5.41939791849541       4.62586229911668
F         1.25101778904733      -4.17729158097854       2.74882543859416
F         0.76776469255540      -3.19447717918286       4.71857720231133
F         5.36786741745830       0.38157346068766       5.93915399914533
F         6.18691337576855      -0.66241720903186       4.11660629033046
F         5.78436375985254      -1.83307646982483       6.00037250452754
