36
C10H16F2N2O4S2 optimized with DFTB in AMS.
N         2.01956238293060      -1.11341834079649      -0.55100374555836
C        -0.29296451205198      -0.44968298532839      -0.05810264891026
C        -1.74415268004002      -0.53972117398469      -0.53936945321484
C         0.63305956379456      -1.18513487668318      -1.02690325816691
C        -2.68967257158839       0.18993138330162       0.42002670616186
C        -4.13806658176915       0.09951183077179      -0.05636704195064
C         2.42120036827032      -1.97097517398455       0.40073738700782
C         2.87585607193583      -0.25384926563330      -1.12228644740540
C         3.73436125774786      -1.98044973556600       0.82185530059245
C         4.20028270787585      -0.22965461532766      -0.73750846063646
C         4.64425314823538      -1.10619931140508       0.24302157753645
H        -0.20214310857578      -0.89414311485743       0.93796845750077
H         0.01546437151881       0.59847621943059       0.01050036874927
H        -2.03577049856400      -1.59235495756919      -0.61323552790951
H        -1.82249386250332      -0.09955503998431      -1.53882436778815
H         0.37164961367582      -2.24398476621984      -1.10383376726763
H         0.59566017544028      -0.74259281366873      -2.02423479648865
H        -2.39330152196722       1.24184109593013       0.49246823783755
H        -2.60510922059415      -0.25142072906054       1.41872924042546
H        -4.24502950060107       0.55230353538766      -1.04280548570163
H        -4.79192815252113       0.62418658389910       0.64009911922156
H        -4.45641098121090      -0.94189191784594      -0.11553941125397
H         1.68717759936693      -2.67251531052573       0.77895669313634
H         2.48856824756952       0.37543155508766      -1.91367674337829
H         4.04515431768391      -2.70404131317403       1.56382058583684
H         4.88242506380698       0.44953566423780      -1.23200487724836
H         5.68740036217634      -1.12562468076904       0.53317772608786
N         2.19836081566952      -3.57641009596829      -1.95444655094247
S         2.81346948257066      -4.81891177925432      -1.17310740699658
S         3.07355323190652      -2.83708339564385      -3.05088793712624
F         4.20657602289221      -4.25432944170676      -0.53138660307528
F         3.11479520549461      -3.82690259438209      -4.31415990223023
O         1.97845760254234      -5.01319800640713      -0.02675512352136
O         3.20822414574123      -5.93754947317274      -1.95563531733678
O         4.44330031948571      -2.59797977365259      -2.71501566722390
O         2.29379408615540      -1.71257273277442      -3.49034892376239
