29
C9H16N2O2 optimized with DFTB in AMS.
N         1.42966348178654      -0.47169053561881      -1.03226574069657
N        -0.40182141160928       0.50456177004475      -0.46750016538479
C         0.10274008685693      -0.56488496307349      -1.09056181824892
C         2.34811825324838      -1.47755553758137      -1.55555914274039
C        -1.81579595763959       0.76669060229357      -0.24763058700598
C         1.80288296629441       0.65423848708527      -0.34637566080251
C         0.63915817154941       1.26655863106253       0.00824746048365
C         2.62979585541602      -2.52042210598053      -0.47997994562881
C        -2.24486537478880       0.19909241624670       1.10278493467974
H        -0.46563361483554      -1.34118594564776      -1.57399973845323
H         1.89343409682195      -1.92891366977912      -2.44233525204975
H         3.27756484364126      -0.96829402424114      -1.82187028378682
H        -1.96846244026833       1.84888811953924      -0.27697695711554
H        -2.38280967839207       0.30359164514789      -1.06012276505322
H         2.92354272323788       0.98878880061923      -0.14652604309266
H         0.46292252248984       2.17939296316044       0.54933887760953
H         3.15593152324424      -2.04654537684919       0.34751391426105
H         3.26852926412970      -3.29626972769046      -0.89875181425709
H         1.70370381113043      -2.96913235531539      -0.11900462709924
H        -2.08471377272670      -0.87837955441444       1.12745891420580
H        -3.30213119520521       0.40483759991552       1.26358079411969
H        -1.66806156595626       0.65807756350473       1.90483853492863
C         6.54472545745770       0.95199591425549       0.35767915758796
C         5.08613940975256       0.59187642078312       0.01255688093736
O         4.84094085907200      -0.55505809715672      -0.38287554738221
O         4.24806838518304       1.52405219731114       0.16531583676183
H         6.59086012035117       1.31963825611684       1.38181587942761
H         7.18676898953067       0.08084214966114       0.24546320552905
H         6.87979872182761       1.74547224690082      -0.30936783913419
