44
C12H26BF4N optimized with ForceField in AMS.
N        -1.62835523036853      -0.29265428395098      -0.18095493483873
C        -1.91025353864388       1.12173261735206       0.21230452977854
C        -2.63906549505562      -1.21199227851236       0.43267073147774
C        -0.29134761731113      -0.71217091010077       0.35669931842364
C        -3.35483674886501       1.56509516608326      -0.07716326352712
C        -4.10318294536749      -0.81283814948188       0.17182806147770
C        -4.35709655243326       0.63072252725285       0.59149117049242
C        -1.63833658917334      -0.44482480171611      -1.66186602739297
C         0.93070491840840       0.06606912918050      -0.19017481347777
C         2.22770673265489      -0.45999468720012       0.43986374570633
C         3.45458983565941       0.26837403743697      -0.12186403429634
C         4.74644783963048      -0.27602240162501       0.50005321166923
C         5.97378792788332       0.43006681707412      -0.06740137617376
H        -1.24112913255470       1.82493616264931      -0.32887035376591
H        -1.72020655553327       1.26457910861873       1.30079025916541
H        -2.50657582050965      -1.24835456542417       1.53946598256049
H        -2.49225935429898      -2.25295600103552       0.06371143572103
H        -0.28126599781708      -0.61082266380484       1.46711149443697
H        -0.12389977003564      -1.79406951857450       0.14357478221868
H        -3.50331949616785       2.59294418040014       0.31803582729879
H        -3.53967999899700       1.60409429355560      -1.17152739691081
H        -4.37669207176214      -0.95781931407726      -0.89355222709549
H        -4.76729330321937      -1.47914506783551       0.76365423516329
H        -4.27119636767413       0.71939970029501       1.69664432836779
H        -5.38861844910302       0.92444063985964       0.30034365228519
H        -1.00664654787672       0.32378987668776      -2.15580420551172
H        -1.27350235421831      -1.45238403330021      -1.96265131050583
H        -2.64994598458798      -0.31889362441225      -2.09348399854675
H         1.00856147638958      -0.05884278795205      -1.28989706124306
H         0.84316955474579       1.14634714030889       0.04747463819787
H         2.18679721861600      -0.31545791165171       1.54245951726363
H         2.32210482293165      -1.54875372415409       0.23034650654776
H         3.36987411253618       1.35611212311517       0.09547925422207
H         3.49170499774966       0.13012727672954      -1.22529215550485
H         4.83207601271733      -1.36514223258777       0.29229992598025
H         4.72349970133664      -0.12894452987685       1.60189104866282
H         6.02342615248879       0.28711742164173      -1.16725165042375
H         5.93505455671354       1.51698129503970       0.15946990978241
H         6.89247376410346       0.00333592599336       0.38833805014044
B         8.68190079798007       0.99702495517217      -3.78488536546569
F         8.13804071821076       1.29795586269852      -5.06190863136918
F         9.95167357241795       0.38108526908529      -3.94373063238908
F         7.81108827615525       0.11174229532927      -3.09715212039146
F         8.82697918214491       2.19601167141437      -3.03732471581023
