37
C11H24ClN optimized with ADF in AMS.
N        -0.56816932403138       0.11309473522512      -0.06776942727011
C        -1.58350525910926       0.54640269958887      -1.11800363153834
C        -0.91924558032185      -1.29865963697708       0.39086689068255
C         0.77365129888605       0.06669690540679      -0.78282882955316
C        -0.54233897959802       1.03937739927878       1.12245595255969
C        -3.01806146449241       0.45046937618430      -0.63245944674234
C        -2.35390465843142      -1.42670733056251       0.87623515450417
C        -3.33655933675710      -0.98128172282111      -0.20423710813034
C         1.95975515857726      -0.30982551541574       0.08294084877710
C        -0.11782972557186       2.46195552780259       0.81660334999914
C         3.21556443594679      -0.40996978902775      -0.78705439060294
C         4.44737942612013      -0.79393570550862       0.02597628748267
H        -1.41495678793545      -0.16590535309551      -1.95832600648121
H        -1.30416479194353       1.56279796574055      -1.42819185496534
H        -0.19963883913509      -1.55976439327218       1.17841813051188
H        -0.76339645274126      -1.92582634900361      -0.51621656966257
H         0.91482993499444       1.05975683565082      -1.23540104633348
H         0.61361329634671      -0.67235859718806      -1.59982866862954
H        -1.55004587966476       1.02475194576864       1.55506225508975
H         0.13609306072010       0.57612889218563       1.85304843275054
H        -3.65900364283603       0.75342796119520      -1.47764998565263
H        -3.22606485917355       1.16124040999421       0.18884240065825
H        -2.52278439619864      -0.86525632525710       1.81350091571057
H        -2.50527655246863      -2.49179375800657       1.12077670449878
H        -4.37356002639086      -1.05984134927713       0.15801835807676
H        -3.22116025669872      -1.64324690635464      -1.08073321146204
H         1.79364190758298      -1.28985280175352       0.55934157817614
H         2.13786143249577       0.42453576126676       0.88914369924321
H        -0.15465517641043       3.04217131255282       1.75028651197532
H         0.90922834070635       2.51657266819047       0.43137411886905
H        -0.78990079583724       2.95113570384681       0.09905468826451
H         3.38654906467998       0.55657991141770      -1.29397116164650
H         3.03376252335144      -1.15333047370013      -1.58141737072783
H         4.30527388413483      -1.77179549537661       0.51279071583740
H         4.64989794686966      -0.05121738904358       0.81428180427637
H         5.34124471443041      -0.86233155645172      -0.61124634427005
Cl       -0.67559251079541      -2.17331556280291      -2.80625176047542
