36
C10H17F3N2O3S optimized with DFTB in AMS.
N         1.83204358550962       1.10206669931941       0.48730084268270
N         0.34345953045890      -0.14341345967892      -0.44212811968240
C         3.07081081434373       1.49214749690578       1.15884660920983
C        -0.31690311576157      -1.34106916784337      -0.94883943222849
C         1.44285969252503      -0.15531615894604       0.30607083180332
C         3.97895923198474       2.28516991496066       0.21527686341645
C        -1.41295082004107      -1.81547871802112       0.00742742275198
C         0.96148636977446       1.93905716468636      -0.16176340467680
C         0.02206397213159       1.15130879671846      -0.74782373869499
C         4.42525708639040       1.46240662640675      -0.99067472834511
C        -0.85889119883651      -2.25537881709422       1.36048324492052
H         3.56368104758840       0.56943055368393       1.47679973835591
H         2.81063022942850       2.09159140024340       2.03673978645790
H         0.45754430835154      -2.10155738616561      -1.07934025338642
H        -0.74363187401705      -1.09563644677554      -1.92427064262838
H         1.93479168681334      -1.02422647540897       0.70718134901453
H         3.46046018398129       3.19091117779786      -0.11560240379311
H         4.85325559377741       2.59336079742244       0.79648681737173
H        -2.14327619872633      -1.01196002317065       0.14671184074553
H        -1.92247788411431      -2.65701021337542      -0.47004416337961
H         1.07540526639654       3.00860053925650      -0.15432040621315
H        -0.82983617932956       1.40223807305048      -1.35520109234138
H         3.56442306559786       1.11286643166095      -1.55988387230521
H         4.99869280963772       0.59494027015118      -0.66811273032612
H         5.05029680655754       2.07499762871021      -1.63986855237704
H        -0.39037403140560      -1.41604488207763       1.87605310724490
H        -0.11788459129794      -3.04375457043790       1.23097050228338
H        -1.66828292316117      -2.63469014947561       1.98351768126637
S         3.82375744679630      -1.99736846343438      -0.85679477036509
O         2.74342141820160      -1.32715773353035      -1.57837370845939
O         4.00359480643774      -1.48473966839404       0.49862857478840
O         5.03014135930206      -2.21191656759847      -1.60562023618866
C         3.09241208405918      -3.67391788621936      -0.55220509320892
F         2.75114939421143      -4.28253124203994      -1.68045882107971
F         1.96262043441849      -3.50454718799671       0.16780605622543
F         3.89168754271566      -4.47199396959012       0.13633531624106
