53
C15H32BF4N optimized with ADF in AMS.
N        -0.72482684736260       0.43672623195681      -0.13585420887064
C        -1.12911520366062       1.58481428041004       0.76343491762467
C        -1.65849721952630       0.39167503736126      -1.32459532661741
C         0.68803565950496       0.67877298274287      -0.68062581889472
C        -0.75359289071168      -0.87353544090629       0.65854835083775
C        -2.60078905444219       1.56932030443632       1.15610974865323
C        -3.12002491882316       0.28644543555585      -0.92586386972681
C        -3.52164806864419       1.47862415879129      -0.05863136046803
C         1.72840229512180       1.08094283150461       0.34756288012808
C        -0.78312867088142      -2.14222295135747      -0.17124867492272
C         3.11161477000168       1.08361405124079      -0.31328844361307
C        -0.66185021155023      -3.35743029157218       0.75361276163659
C         4.23348397536204       1.20483337019561       0.71615074228253
C        -0.59614742203303      -4.66310975206473      -0.03657564161753
C         5.60709861360560       0.98260616851843       0.08766255613573
C        -0.46522062250315      -5.87886943049779       0.87623602459982
H        -0.88665801071330       2.50372868736010       0.20445248886915
H        -0.47800426055074       1.53737812661965       1.64648965446701
H        -1.32144279070393      -0.43848204073192      -1.95857664633454
H        -1.48649394602902       1.33307728390628      -1.87169179545830
H         0.57739431042754       1.45853631653701      -1.45131686457526
H         0.99536060580892      -0.26375792350589      -1.16075563167946
H        -1.62591368090935      -0.82056873740804       1.32285311865985
H         0.15972275499453      -0.86261818894932       1.26796723490212
H        -2.79206464237152       2.49196181808315       1.72989512129291
H        -2.80523236276497       0.73436825665225       1.84685511045984
H        -3.30835573160028      -0.66068427634236      -0.39284592682012
H        -3.71727568424195       0.25044700102103      -1.85150906870197
H        -3.44177544960425       2.40643852139510      -0.65459149777436
H        -4.57193901898763       1.39362124062279       0.26213330704198
H         1.51848665997021       2.07368408773404       0.78106713249488
H         1.76294614095270       0.33625084991391       1.15738092775742
H        -1.72063291497874      -2.22252459182262      -0.74769637696816
H         0.06684902689270      -2.16134250973784      -0.87143711647343
H         3.17899901919262       1.90368388871182      -1.05346498148299
H         3.24554946399453       0.13561119472211      -0.85745753796959
H         0.26500966266082      -3.25778742169777       1.34349265979643
H        -1.51424870312132      -3.38441246968092       1.46068566440618
H         4.06648968187011       0.43526018468649       1.48969606021333
H         4.18547218697118       2.19016860362076       1.21733665147646
H         0.28084815042857      -4.61131231499995      -0.70286444597093
H        -1.49634534171095      -4.75941943331067      -0.67231960695862
H         6.41017245682151       1.08409163718678       0.83371772784969
H         5.65535568747922      -0.03215146167600      -0.33672516774617
H         5.79946103148482       1.70659522812288      -0.72057610111131
H        -0.40147400897909      -6.81090496443057       0.29417103483290
H         0.44977889642320      -5.79995714645044       1.48395546319463
H        -1.32617381237191      -5.96230575710492       1.56006804037440
B         2.81084034798529      -2.51012159587178      -0.44096800354068
F         4.16455347694255      -2.15490015613353      -0.57343909382087
F         2.63040089392027      -3.90160798603067      -0.35840815787006
F         2.07375041310100      -1.99579010354014      -1.58158318615341
F         2.25966672285912      -1.88588512008623       0.73831478375356
