26
C8H15ClN2 optimized with ForceField in AMS.
N        -0.66777553085078      -0.88809989843398       0.46544505888933
N         1.51776251053908      -0.52664865298313       0.27357775205135
C        -2.05203594224832      -0.77557625780660       0.92237454147138
C        -2.91901185345857      -0.04399862431795      -0.11036149360272
C         0.40218087359140      -0.24687681376651       0.97469211937763
C        -0.21254715586800      -1.60316481229828      -0.58363286116783
C         2.84937781397741       0.03244662435256       0.49066453855952
C         1.14321184822646      -1.37530742022631      -0.70530991421766
C        -2.41138455605705       1.37050819215210      -0.39161131323277
C         3.12801670583745       1.14095855004303      -0.51815168671941
H        -2.09230324735938      -0.22672741979177       1.88910076131082
H        -2.46333034311220      -1.79348217595698       1.09668434779293
H        -2.94624876602370      -0.62296184213946      -1.05765030524048
H        -3.95841506214787       0.02027915239460       0.27845188457841
H         0.36324645303372       0.43656034187596       1.81403401737007
H        -0.82167509831356      -2.22762726683973      -1.22420437492682
H         2.92099188901135       0.45337273880387       1.51772625156114
H         3.61271145282055      -0.76947539798170       0.39382844149411
H         1.80070490755734      -1.78592762693695      -1.46041071862789
H        -1.40755532687656       1.33719805038750      -0.86661020251901
H        -2.35144837250855       1.95472550552352       0.55119703827556
H        -3.10763592982334       1.88498645558810      -1.08669268037031
H         3.08532240025693       0.74081555020926      -1.55324149946708
H         4.13833318703284       1.56460243931753      -0.33758126269311
H         2.37565536127991       1.95134184443956      -0.41012018698526
Cl       -1.84762431691655      -0.59706315500822      -3.93483533216192
