49
C13H21F6N3O4S2 optimized with ForceField in AMS.
N        -1.12540015873074      -1.71947243359043       0.21732296795303
N         1.09743913212146      -1.70988380871850       0.30454253291908
C        -2.52078784964752      -1.44530230806978       0.55939872376598
C         2.45767235172527      -1.40438449767660       0.74734264436142
C        -3.01791153611918      -0.16959588203964      -0.13141029826210
C         3.04516725396695      -0.22614277135580      -0.04281985816283
C        -0.04301066582217      -1.44039436699745       0.96968479245891
C        -0.65508423322084      -2.19004131581340      -0.95551414295768
C         0.72431375563554      -2.18782414196576      -0.89998693062820
C        -2.23838806307906       1.07035609202919       0.32876762707107
C         2.20256414155455       1.04799288784889       0.11775081687243
C        -2.80530487176669       2.34410117346520      -0.28702850042382
C         2.84034856753059       2.23342596491847      -0.59786139786990
H        -3.15433614393062      -2.30080940967328       0.24161763676457
H        -2.62989112928542      -1.34055866301989       1.66130089086099
H         2.45961152879965      -1.15662055853672       1.83181789718004
H         3.09980569931249      -2.30038919117155       0.60708006154810
H        -4.09527877929840      -0.03763584037398       0.11052162607363
H        -2.92444256993826      -0.28603218003496      -1.23330664403751
H         3.11045989401205      -0.49915596198136      -1.11864867348174
H         4.07692663284838      -0.03511561510478       0.32544954478788
H        -0.08397556837980      -0.98700184712800       1.95226667466833
H        -1.26763794293379      -2.48678049695982      -1.79695054341262
H         1.40345105386313      -2.47804047079354      -1.69119427487624
H        -2.28043067170255       1.15545522826119       1.43651460395209
H        -1.17606851026148       0.97972588889734       0.02214034710940
H         1.19373177344947       0.88527517859527      -0.31543315658301
H         2.08977881020054       1.29479513385559       1.19592245393095
H        -3.85844786120587       2.49172150114819       0.03318945466997
H        -2.75936654179493       2.28922703980531      -1.39556214122252
H        -2.20470404516540       3.21503677968642       0.05089893646284
H         2.94415067035305       2.01781211800317      -1.68265630033723
H         3.83977691360297       2.45349627468452      -0.16655380155447
H         2.19439816959527       3.12857634749772      -0.47452116438940
N        -0.90816111666399      -7.42777659485113       1.31236349856141
S        -2.49927605462734      -7.04933085521942       1.20962351933897
S        -0.20925794419226      -7.94986724146816       2.69983162200576
C        -2.69869221658958      -5.31280008865461       1.53839674769938
C        -0.07794683375295      -9.72412795866697       2.64411099903778
O        -2.98758927284342      -7.33695387737933      -0.18146874763575
O        -3.30083558594503      -7.84780705209440       2.20004585839992
O        -1.02439688634944      -7.54137393543885       3.89574474303239
O         1.17007160617035      -7.36522321516463       2.80946862371548
F        -4.02682236565309      -4.95954863491296       1.39493095090670
F        -1.93285909868369      -4.59593525870198       0.64208590607417
F        -2.28409301953277      -5.02704461751721       2.82473409192265
F         0.49331275577630     -10.18516321020903       3.81458584303199
F         0.71220781217890     -10.09364510913700       1.57245869718292
F        -1.33473827678064     -10.27895629777560       2.49787101391478
