22
C6H8F6NP optimized with ForceField in AMS.
N        -0.70058743848620       0.01780770787905       0.04280330772131
C        -0.02501238196613       1.20476440509731      -0.02758664988698
C        -0.01963104679501      -1.16765503570906       0.08870654100979
C        -2.16443978854639       0.01584875065522       0.01998016050505
C         1.37156936121662       1.22494503678283      -0.04436123898420
C         1.37659951136741      -1.18379671935466       0.06520365627885
C         2.07395510374750       0.02140064315720      -0.00068817604736
H        -0.56348367924608       2.14440806184980      -0.06973712290232
H        -0.55322769720082      -2.10969515616621       0.13232127651839
H        -2.56919434134589      -0.88774706221187       0.52516610896105
H        -2.56608211502937       0.90503214549687       0.55240311000077
H        -2.51765036763433       0.03092833816036      -1.03270388369126
H         1.90311431085837       2.16627220728875      -0.09445622339140
H         1.91158794145853      -2.12410363633958       0.09390621872565
H         3.15582688965757       0.02263819302163      -0.01957128563722
P        -0.51317547447076      -1.97870074703937      -4.17372292634963
F        -0.50368091877807      -1.53905477711223      -5.83428862746723
F         0.63009277458947      -0.77353044942469      -3.73526354604184
F        -1.70018931226937      -0.79189367658842      -3.80816585227663
F        -0.57281437905707      -2.62569082224073      -2.58475055184266
F        -1.73383168201944      -3.12101942623479      -4.56910033528617
F         0.79185444344946      -3.04507515326739      -4.50671644051596
