17
C5H9ClN2 optimized with ForceField in AMS.
N         1.11373304323063      -0.01468363443589      -0.01752335976342
N        -1.10775579928883       0.06519106867284       0.02083881029408
C        -0.02414954237284      -0.73622990026190       0.01808432904131
C         0.73835599087979       1.27954322491508      -0.03752157552330
C        -0.64131375819730       1.32896791832726      -0.01522474039983
C         2.48069784193289      -0.52171696076962      -0.02609281977336
C        -2.50715056749476      -0.34140808273072       0.06392388465529
H        -0.06264940502391      -1.81922141005927       0.04221405911685
H         1.41416040049785       2.12493524160902      -0.06263906371426
H        -1.25551629124989       2.22033326238962      -0.01899420545137
H         2.48617718199111      -1.63221570971604      -0.01049787229990
H         3.00378556480054      -0.17449375762317      -0.94172411241276
H         3.02411699283928      -0.14894459096470       0.86737428930515
H        -3.00233272201950       0.11215081029364       0.94809963740428
H        -3.02431886395595      -0.00293024779715      -0.85831470396853
H        -2.59136109001219      -1.44576123464897       0.13776247443307
Cl       -2.14794666225692      -4.08516616500004      -1.31343138864331
