43
C13H27NO2 optimized with ADF in AMS.
N        -0.19586344908262       0.09347512373574      -0.22398044273045
C        -0.97882327985118       0.47225621097328      -1.47370817343844
C        -0.87949841782779      -1.06753057753533       0.46125716747832
C         1.18266571096259      -0.32756185418533      -0.70711661126966
C        -0.10431122557187       1.25873417260859       0.75159212624533
C        -2.43405964421819       0.77967452224611      -1.17729675528612
C        -2.34556844556331      -0.80482758560363       0.77580839835570
C        -3.12197082150126      -0.39387091498585      -0.47648004714693
C         2.17936572631273      -0.70304967314517       0.37279283540135
C         0.65064160044499       2.46732812913547       0.24465550661846
C         3.54878443262264      -0.91838593464459      -0.28394431333054
C         4.63304816625172      -1.23184866794880       0.74062753286066
H        -0.91254321554545      -0.41852472006621      -2.12150865131444
H        -0.40638324051291       1.28851989967212      -1.97488833790206
H        -0.30261994437712      -1.29664717958498       1.36831520486259
H        -0.78525197434277      -1.91624466970003      -0.23528395742942
H         1.59920873508099       0.52413902406547      -1.29765853838469
H         1.00135398786738      -1.17754138532390      -1.38630489244917
H        -1.13813837254345       1.52418567806515       1.00412030328533
H         0.35951620138766       0.84162054826841       1.65816765039828
H        -2.92070164148915       0.99634655672567      -2.14271286205566
H        -2.52750342638884       1.70136951160987      -0.57784700537992
H        -2.43817207499034      -0.03244208083971       1.55752146418438
H        -2.75937805286104      -1.73285537068638       1.20620305498841
H        -4.16350114956368      -0.14496916531223      -0.21487308006824
H        -3.15847894573556      -1.25318433519351      -1.17206678411102
H         1.88509548154996      -1.61000134449612       0.93276888178772
H         2.28291259052100       0.11891896959795       1.10160662759626
H         0.62757575205510       3.23068919635682       1.03878761726441
H         1.69537231761504       2.24161408269286      -0.01544790945248
H         0.20590307590965       2.88378864702931      -0.67089467782103
H         3.79900241696642      -0.00853021968886      -0.85514209318591
H         3.47589566807571      -1.74072119176169      -1.01866705237408
H         4.39916972628887      -2.14792062131178       1.30828055146986
H         4.73729710297221      -0.40418671693393       1.46115052115449
H         5.60933308835532      -1.37445361123033       0.25343575285723
C         2.80467548185065       3.10490653262960      -3.98460620953784
C         2.05524727203666       2.38449541384449      -2.85917797838486
O         2.77294878936953       1.79624334294540      -1.98992861758903
O         0.78597468253000       2.41584967907720      -2.90426620403572
H         3.75042175352475       3.52719820205761      -3.61596255213380
H         3.05253776246071       2.36767800244843      -4.76521676935878
H         2.17920076525423       3.88606718019281      -4.43722444893848
