34
C12H16F3NO2 optimized with ForceField in AMS.
N         1.73133381233614      -0.02308197471137      -0.48906955091999
C        -0.65027291233782      -0.02274297535290       0.12664180512559
C        -2.08800162976076      -0.03249387390564      -0.40390064918929
C         0.36321248891378      -0.05447923367683      -1.02069480623265
C        -3.09609599568685       0.02387174495757       0.74919229880312
C        -4.52998474822950       0.02174119239601       0.22850457794632
C         2.36359834191353      -1.19400866740676      -0.17029205488351
C         2.35610742928579       1.17819161250335      -0.29102891720579
C         3.65604430483929      -1.18068320833408       0.36025123414914
C         3.64811057813656       1.22720219952545       0.23813747620944
C         4.29951008476351       0.03890781512740       0.56494041077353
H        -0.49022325927117      -0.90831384203458       0.78013505381214
H        -0.48526312734128       0.89613496991601       0.73125693196151
H        -2.25595733435634      -0.95917536781359      -0.99621685589256
H        -2.24170185186219       0.84558390275841      -1.06964888212146
H         0.21104726079462      -0.97025670017827      -1.63510737312748
H         0.19228127722133       0.81616686540459      -1.69262814883484
H        -2.93181678417986       0.94795327117176       1.34557000180239
H        -2.95306367271151      -0.85496854580636       1.41522141936636
H        -4.70598124984464       0.90649632571361      -0.41986933238508
H        -5.23623810574691       0.06266031026734       1.08437557185727
H        -4.72804047128210      -0.90436615523699      -0.35208012116410
H         1.86641692976704      -2.14540436709586      -0.31798780993719
H         1.85285731881406       2.10666781018675      -0.53349584780084
H         4.15124336822657      -2.10857202519411       0.61580253892711
H         4.13670434129243       2.17956594836250       0.39875877207341
H         5.29879396297096       0.06339127634721       0.98049814089203
C         1.81334331787016       0.26279371025211      -6.16909320548995
O         0.98066333766093       0.59772355319088      -6.99719337354606
O         2.99578312958006       0.47894602407785      -6.38127438704786
C         1.39354737510709      -0.40632229452029      -4.89432776169847
F         1.99280760712371      -1.64917201389670      -4.80442391600551
F         0.01876241862318      -0.56520642326345      -4.85506669821550
F         1.78962322617018       0.36698553536895      -3.81967300140125
