48
C12H26F2N2O4S2 optimized with ADF in AMS.
N         0.37962925148998      -0.58324140207654       0.22075585000354
C        -0.69101039938685       0.48030508751968       0.30529363018697
C         0.02970140774367      -1.73286713439996       1.16156223798627
C         1.71413065412098      -0.02446451391744       0.69665364254608
C        -2.08288106708695      -0.06323997448918       0.02118095065334
C        -1.36167338158175      -2.29315757312922       0.92311150131129
C        -2.43458477410781      -1.20509409498440       0.97516279992627
C         0.52225712443509      -1.08862602724381      -1.18503227239249
C         2.29237618465995       1.11234612238809      -0.12622689123717
C         3.70609084702895       1.43245190603761       0.37329913557218
C         4.33665415895659       2.60282289284651      -0.37540237594528
C         5.79486064219234       2.83552549923494       0.01683119981391
C         6.41435314111569       4.03439715165506      -0.69593170132259
H        -0.41031184857976       1.27687249311045      -0.39722800947834
H        -0.63424880780761       0.88213779663907       1.33008957446233
H         0.11386319725924      -1.31121737093470       2.17556295683657
H         0.81102218781324      -2.49304829799156       1.02665514589560
H         1.54856175550324       0.29175611362059       1.73917219964191
H         2.41047965973196      -0.87582639025607       0.71459506832895
H        -2.79193576856900       0.77418136716918       0.12762054176832
H        -2.15608131382204      -0.39764387563799      -1.02742014645066
H        -1.39850947214099      -2.83647373996790      -0.03544710961893
H        -1.53431243783048      -3.05376503400105       1.70203859564756
H        -2.50612977746165      -0.80717024325907       2.00427569841447
H        -3.42187529734366      -1.62365107323285       0.72471019626384
H         0.61523772767500      -0.23046593922427      -1.85978893141243
H         1.40763627546983      -1.73252419600300      -1.22962413509722
H        -0.35930270611260      -1.67775495351725      -1.45114942071893
H         2.36656862674006       0.82581615105716      -1.18823335796469
H         1.66510782523108       2.01900019301266      -0.06321494479793
H         3.67927304111991       1.65552106811847       1.45559641321417
H         4.33278755466667       0.53218193261035       0.26138862713235
H         3.75311319304524       3.52512582571942      -0.18929379467886
H         4.28344492270332       2.41291510248411      -1.46445798224983
H         6.37517807884851       1.92333250752549      -0.21102539299569
H         5.85953705309224       2.97688252554437       1.11114560072124
H         6.37000242072058       3.90838060885934      -1.79004686802790
H         5.87806132583130       4.96398407318507      -0.44369805746795
H         7.46981425578094       4.16714483735126      -0.41513262657595
N         4.22120154882753      -4.22723188909015       0.49843225180182
S         4.23191277521418      -3.15842749087791       1.68767752226664
S         3.23944717178006      -4.08436776663105      -0.74799867632290
F         2.71282584207151      -3.31864610410128       2.38603839941606
F         3.71687928078997      -2.66396873941502      -1.50134330555078
O         5.14443297897476      -3.60636259109764       2.71234273571434
O         4.22780105154340      -1.76016876614453       1.26772290670780
O         1.84458624799800      -3.78251949310004      -0.41632574392595
O         3.53605071075613      -5.12226795536501      -1.70669577120135
