31
C7H9F6N3O4S2 optimized with ADF in AMS.
N         1.01785781512544      -0.73575264573382      -0.23599383230004
N        -1.13769714013926      -0.95960843095522      -0.12649319569258
C         0.01304990726620      -1.20133466419638       0.51645072502889
C         0.50009489818732      -0.21109275280755      -1.39828312444391
C        -0.85429930089889      -0.34481767440508      -1.32770662208630
C         2.43060927615075      -1.00268110504574       0.00883178302720
C        -2.44646123311816      -1.45022443776030       0.29936732013992
H         0.12068922434670      -1.75022213039706       1.44323373251667
H         1.13171724660222       0.15398609483674      -2.19773472205629
H        -1.62684639617509      -0.09473554535400      -2.04264554865437
H         2.58270383059824      -1.16627167821215       1.08048019484895
H         2.69947638773811      -1.91245433032101      -0.54536832408903
H         3.01842917502050      -0.14026395295562      -0.32563370762892
H        -2.54731819322306      -1.31669188810513       1.38270432566411
H        -3.21988561443853      -0.86678241504254      -0.21148308718971
H        -2.51996739112850      -2.51438618014057       0.03483458729612
N         0.72888435055361      -3.33137297337488      -1.63986166434277
S         0.38583210695936      -4.31824632165705      -0.42883661680470
S         0.37344916268227      -3.47252836714234      -3.20355047858430
C         0.95884903364585      -6.08567456704026      -0.80154741605410
C        -1.51079695900152      -3.61768980464771      -3.38292256542380
O         1.24883646494879      -3.90423297995419       0.68400653411241
O        -1.05039871335381      -4.45914260687662      -0.17294759431681
O         0.85733755544657      -4.69936986973995      -3.81629608566272
O         0.66776762990842      -2.17195451997600      -3.79895680380278
F         0.88369910927348      -6.79407935559710       0.35190819015026
F         2.23677499497147      -6.09405081947304      -1.23484187601333
F         0.16981220508004      -6.67412313868086      -1.71849436452517
F        -1.83760940039088      -3.40282509375951      -4.67838726783745
F        -2.16746205017814      -2.68299004295833      -2.63098770690965
F        -1.95505546775953      -4.83577369872672      -3.02067982126581
