34
C10H21NO2 optimized with ForceField in AMS.
N         0.42032325447844       0.23672473105051       0.04290548566552
C        -0.53157958421014       1.27530546661844      -0.46515721713055
C        -0.08332999351376      -1.13242400030052      -0.28655655293217
C        -1.99085164279783       1.06780593546490      -0.02042996729271
C        -1.53045125207798      -1.38543049941808       0.17367415692416
C         1.72798038170036       0.48068625077695      -0.65153677793537
C        -2.47523842103072      -0.32986167509383      -0.39041631703641
C         0.60591906699953       0.39401126445112       1.51080095269611
C         2.88066075307960      -0.46520271744481      -0.26458660625489
H        -0.53282122795797       1.28527825156877      -1.58040524825466
H        -0.21043889012059       2.29196815129539      -0.14167314780722
H         0.54840088663529      -1.91271876135371       0.19031205992836
H        -0.03969283260860      -1.30443347475586      -1.38667340882196
H        -2.63253512934530       1.81722654493772      -0.53263762896827
H        -2.10767700787343       1.24092046269995       1.06942726823058
H        -1.59267754832435      -1.40009824960618       1.28241621518632
H        -1.85385204976013      -2.38695294946342      -0.18403250781222
H         1.59865986600750       0.40039192495064      -1.75544157399916
H         2.07728934517241       1.52100885031420      -0.45573924744161
H        -3.49706409323119      -0.48888684364247       0.01662947649224
H        -2.52583006397867      -0.42731788570278      -1.49745531782242
H        -0.35122121546962       0.34962062138836       2.06472890701049
H         1.23649726654739      -0.41729829398906       1.93183475995206
H         1.07877536680761       1.37151534629391       1.75032116757169
H         3.77476401010919      -0.20188265442772      -0.86848895904228
H         3.16512149182289      -0.35129099111779       0.80044386968938
H         2.63888308513464      -1.52359921347910      -0.48607100079430
C         4.36692464059388       2.21457501716122       4.83306108274337
C         4.14540890399985       1.46217005925970       3.55891656028428
O         4.54821798489235       0.31569561468990       3.44603898804577
O         3.57609631408790       1.99896291547027       2.62269756546304
H         4.40192050000901       1.51313078684980       5.69373540162443
H         5.32863223552804       2.76569040957352       4.77358278574651
H         3.54178206859442       2.93952195668005       4.99961801949189
