44
C12H11F18N2P optimized with DFTB in AMS.
N        -0.71165948982112       1.79710328935081      -0.46224196542767
N         1.19604472158922       1.33066218234409       0.41362149268639
C        -1.72708593966325       2.14928255207866      -1.45095764953044
C         0.55691560349680       1.51207242185969      -0.73885618639374
C        -0.88709343773407       1.80182471543781       0.89434328665348
C         0.31796261506248       1.50618635170270       1.44811948160144
C        -2.70957611909284       1.00036924286074      -1.63511261162277
C         2.62204213264376       1.07976410096092       0.54683804071163
H        -2.23272822233295       3.05171695585892      -1.09819227495723
H        -1.20994146877972       2.37955093479452      -2.38448188494747
H         0.99707900371037       1.47283650618664      -1.71989336282380
H        -1.83484095391628       2.02935149062183       1.34964219947960
H         0.62204657858347       1.42487656096297       2.47666189630214
H        -2.18909067532484       0.10671887855323      -1.97864286934900
H        -3.45245392081720       1.28386234375076      -2.37896203795380
H        -3.21735787197700       0.77401681111267      -0.69792006140099
H         2.79806484447259       0.00822463750758       0.65232022458333
H         3.12334205549001       1.45707897367186      -0.34258508750363
H         2.98952862909900       1.60496685556170       1.42624307897624
P         1.63241640329741       4.87646577192821      -1.68057199248492
F         0.11364625646279       4.19045626427505      -1.34751268092608
F         2.40308275240006       3.36732538530958      -1.39335171841141
F         0.87489851638546       6.33097856051770      -1.97137579004959
C         1.25943209130452       4.19709552221561      -3.49281905130315
C         1.71773128748103       5.18652410279249       0.29552570602518
C         3.38186311493310       5.78043116301491      -1.99323905539573
C         0.12580726893940       4.83831051016473      -4.33588793609573
C         3.01658857593322       5.02838731301520       1.14635979286299
C         3.90187429701108       6.30571327740773      -3.36246520810142
F         0.87847384092465       2.89303163602530      -3.37083222310152
F         2.37362367166709       4.18713809443671      -4.23826173778048
F         0.90951761327109       4.25069798099084       0.86605771139998
F         1.19811258683233       6.38118006273561       0.60286404908051
F         4.36866941976043       5.02545563432401      -1.47320869756372
F         3.26936463497823       6.87708051663130      -1.21253222843743
F         0.03200831063861       4.21725058760388      -5.51501687069265
F         0.31523196335036       6.12738563498988      -4.56597833993419
F        -1.04679269672670       4.68533751718525      -3.71275053632014
F         2.66807824895330       4.99306303946957       2.43965921679146
F         3.61591046949443       3.85814511090337       0.88235045545947
F         3.90420097228809       5.99408273467806       1.00262932439271
F         4.58499177593094       5.36853074574272      -4.01114836233544
F         4.71541267651446       7.34346566458282      -3.17687006494600
F         2.89476167278613       6.71214124508133      -4.13340013941634
