50
C12H28F2N2O4S2 optimized with DFTB in AMS.
N         0.85540976295347       0.14980610943374       0.41600618676646
C        -0.50172647253031       0.59946383297950       0.87839676038448
C         0.75372652217129      -0.79458956361832      -0.75930761598278
C         1.54119687405459      -0.57286004831952       1.54690546999602
C         1.63750916082101       1.36694388636430      -0.01372437319251
C        -1.46514735807223      -0.51879253439970       1.27499953024107
C        -0.13934597818427      -0.32572790322704      -1.90712041951625
C         2.99924311221277      -0.95403603971748       1.29453037507715
C         1.94441944248591       2.38281061269228       1.08353068910248
C        -2.82248131584164       0.09028289976700       1.62742086156388
C         0.04697582491911      -1.27245284714749      -3.09296322056098
C         3.52797596302521      -1.72884274761871       2.50066807002498
C         2.82327233946545       3.48689794387880       0.49233067000267
H        -0.93223337089983       1.19391983705652       0.06942577834245
H        -0.34417350187400       1.25522978086180       1.73753924230156
H         0.39476839113529      -1.75215588532540      -0.37469653216740
H         1.76921226329596      -0.93277860940681      -1.13374625512665
H         0.96182863793006      -1.47971432404679       1.73642414467686
H         1.46816327381735       0.06738653549490       2.42997119522580
H         1.06226241790750       1.84989695383249      -0.80555432724210
H         2.57041536946301       1.00630405846292      -0.44530916303052
H        -1.59499907293531      -1.23004769461274       0.45670085397647
H        -1.08252646868663      -1.06325376971488       2.14195026827376
H        -1.19043460615777      -0.32307333793940      -1.60566596271196
H         0.13111465689154       0.68363143240247      -2.22106884731165
H         3.08669332039717      -1.57686537215313       0.40266629309672
H         3.61254764459115      -0.06388741095241       1.14615652749660
H         1.02446355114784       2.82604602531754       1.47618790522755
H         2.47570770999789       1.91071187008634       1.91379834602053
H        -3.51349457522885      -0.69994677475205       1.91813201024645
H        -2.72490975447327       0.79105524595106       2.45703679729717
H        -3.23886739015162       0.61936404683501       0.76986974431661
H        -0.61042431308646      -0.96840310864653      -3.90643004278101
H         1.07798238015811      -1.23285495352771      -3.44397725126865
H        -0.19238888133960      -2.29845210327313      -2.81124388176121
H         4.56345261700923      -2.01264353386347       2.32022119025895
H         3.48473613590544      -1.11648147720851       3.40236857501171
H         2.94138701913444      -2.63388844539229       2.66426270664588
H         3.03941264969049       4.23138100122035       1.25751500625900
H         3.76131532856110       3.07186532871305       0.12557724308590
H         2.31546439174899       3.97454385566601      -0.33947283000633
N         2.93256607390935       0.27941456211807      -2.74656563614750
S         2.90224197035276       1.82063203331561      -3.15413239758477
S         4.31002744992615      -0.33761236182159      -2.25818002575818
F         3.53132206141218       1.85676564605322      -4.62989703875724
F         4.62587538158369       0.50032939708523      -0.87468280905463
O         1.52236256067945       2.16263836536829      -3.32995087263102
O         3.72047831453537       2.69763390895358      -2.37820162182754
O         5.46051058300596      -0.12921637350786      -3.06548160709150
O         4.01164881506552      -1.65130861401712      -1.77205720780681
