48
C12H22F6N2O4S2 optimized with DFTB in AMS.
N         0.72051424106418       0.36288224230061      -0.24561389399825
C         0.30124343070724       0.95087759883628      -1.56561955938369
C         0.31174643042100      -1.08045910336466      -0.22416123978038
C         2.22703709771234       0.43515836101573      -0.20242350030457
C        -1.19061162845413       0.81889302618240      -1.82931997384002
C        -1.17778789867212      -1.28717928012267      -0.47997175295144
C         0.10570385502050       1.08562698343024       0.91851782864888
C        -1.60488788232511      -0.65111078224384      -1.80218911197979
C         2.88873720251949      -0.01035884362675       1.09734839475318
C         0.50565910757792       2.54833481182954       1.04083220184242
C         4.40567079623092       0.09673904748590       0.92057557533949
H         0.85314607322726       0.40677302742276      -2.33394169810720
H         0.61802421952871       1.99332746479186      -1.59086620831215
H         0.59006784158360      -1.49344116872113       0.74741982463900
H         0.89423847641265      -1.58059320696216      -1.00254203396261
H         2.50227421567217       1.46648922003646      -0.42140685675899
H         2.58682626377517      -0.18499309944861      -1.02561704914702
H        -1.37989809658023       1.23817216460116      -2.82061377617738
H        -1.77649429313803       1.39517238237528      -1.10787376379311
H        -1.77042548882347      -0.88086596729450       0.34443505346487
H        -1.35427043645485      -2.36564516626172      -0.51213632983731
H        -0.97798949723742       1.01557136402140       0.81339291258877
H         0.39385484956669       0.53941181781848       1.81976718717386
H        -2.68744848436656      -0.73865981411648      -1.91940361259513
H        -1.12706422812650      -1.17964693662253      -2.63278599724779
H         2.58106391541676       0.62485363294249       1.93223905150637
H         2.62084329835444      -1.04349543334147       1.33753628995282
H        -0.00246969928001       2.95487577083851       1.91532199119385
H         1.57728336208174       2.66783054705694       1.18234175478777
H         0.20031713868145       3.12295285789105       0.16939598702249
H         4.90444937862612      -0.20058047086469       1.84205288298236
H         4.74077633092540      -0.55311791981236       0.11237585299740
H         4.69037434218102       1.12085261702450       0.67912317110291
N         4.11753090923540       1.56248012110859      -2.16242476422862
S         4.72778903461425       3.03976353881871      -1.98183265079658
S         3.19476829659067       1.27285978592131      -3.43587614773082
C         3.30347995016758       4.23641633670555      -1.69000652077395
C         4.20985474879813       1.29322544160458      -5.01526409336273
O         5.40335502405080       3.02347781602600      -0.70998944208692
O         5.41388268434578       3.55544858565904      -3.13569521798301
O         2.13442049932688       2.24228354087388      -3.64213143099147
O         2.77562568234739      -0.11202392289790      -3.29557304288739
F         3.69409063956909       5.18017161153776      -0.84931636023231
F         2.27827825054622       3.58260961966257      -1.11087137323418
F         2.87091608157684       4.79841025083555      -2.79613826380845
F         3.65473232766589       0.45189331690425      -5.87381257477683
F         5.44389134588216       0.89808276588858      -4.76414596415606
F         4.22477695225461       2.49797855785349      -5.54334713177025
