49
C13H21F6N3O4S2 optimized with DFTB in AMS.
N         1.26198174994522       1.09483767745727       0.98428256626508
N         0.07489619105929       0.67362190704390      -0.76313483877667
C         2.93716551379489       0.46469045803174       2.69557069826358
C         3.41768752582916      -0.74498845288251       1.88843095728845
C         2.37377169101507       1.57433730612616       1.80799354879050
C         4.03154235553447      -1.80083832610463       2.81195711081545
C         4.49542266972008      -3.02822914576442       2.02144800493788
C         1.16020448341498       1.30630489355054      -0.32443854298336
C         0.21557872615569       0.31355261935153       1.39454350386045
C        -0.53179734763625       0.04706219351789       0.29021702679996
C        -0.34155946592736       0.58691294464951      -2.16333044205052
C         5.09566552167409      -4.08843679376780       2.94225073575200
C        -0.38359729624896       1.96448250554034      -2.80878819870042
H         3.77834923151902       0.89549427039357       3.24673912766772
H         2.18301708584126       0.15674508955952       3.42712680870484
H         4.15847254052267      -0.41830346113440       1.15434839946386
H         2.57428054733195      -1.17935395791427       1.34169058665682
H         2.00987383636101       2.40647263090332       2.41900114006683
H         3.14139288521802       1.93833584807811       1.12045985235908
H         3.29186524729788      -2.10508032031318       3.56205303703073
H         4.88471662797602      -1.36518961735215       3.34311931875662
H         5.24351182188445      -2.72222954123419       1.28495161276443
H         3.64507770010782      -3.45439466268446       1.47822818494426
H         1.84142607738064       1.88892645566380      -0.91660397189281
H         0.08309300262824       0.01425400745465       2.41895052601657
H        -1.43031815810075      -0.53308937998282       0.17247540986960
H         0.38121252686442      -0.05155605415602      -2.68112956415400
H        -1.32499350499068       0.11066838434931      -2.18228923182202
H         4.36078395752648      -4.42149603754163       3.67713743836258
H         5.96025520425527      -3.68782069270475       3.47319675478125
H         5.41721570376048      -4.95072723325945       2.35771602061990
H        -1.00624496985259       2.64512279706765      -2.22870819937541
H        -0.79949472967556       1.86880889330858      -3.81072831114896
H         0.62086277933332       2.37674337868229      -2.88963631485815
N         4.91298307646970       0.04850217159129      -3.05156782099141
S         6.41922539416093       0.03460619013168      -2.44001838025235
S         3.86711446759643       0.92904292825606      -2.26962416126173
C         6.32149222310160      -1.08026564099483      -0.92912081656865
C         4.04221473508686       2.75418019893994      -2.69786793211502
O         7.23451683638311      -0.68817134678207      -3.37219941286423
O         6.87453030543662       1.30896243677364      -1.94926163870913
O         3.95824315587392       0.94239744366877      -0.81107508359900
O         2.54958974946702       0.63397014361189      -2.81167834864346
F         7.34102234081212      -1.92188495437329      -0.92810512417583
F         5.19517624990858      -1.78570712965206      -0.94991603016153
F         6.35525674898970      -0.37550332451585       0.19107852435138
F         2.85391519786634       3.31268349918458      -2.40555735000670
F         4.28214865521467       2.93877005342057      -3.98153010674850
F         4.96027337281252       3.36479238710667      -1.98054383652991
