37
C9H20F6NP optimized with DFTB in AMS.
N         0.07628160249010       0.11606871874464       0.27537968915675
C        -0.93730795770868       1.03762229770648      -0.33665094624551
C        -0.27071457286194      -1.30392465945163      -0.07037768874396
C         1.40887258741408       0.47028057543740      -0.33409813444941
C        -2.36912695017585       0.70517922577666       0.06981153297918
C        -1.68760990056088      -1.68044209476178       0.33734216675260
C        -2.71274850298992      -0.73979186328465      -0.28904846670107
C         0.13577037179465       0.32328700105417       1.74825897378295
C         2.60450862383675      -0.32537413643669       0.18937621072351
C         3.85112551157310       0.06380139269943      -0.60320340820129
H        -0.83227707318438       0.95323029341082      -1.42218842963898
H        -0.67741506382189       2.05544717302473      -0.03541539144430
H         0.44051449779962      -1.95175444149372       0.43949181691646
H        -0.14536849820831      -1.40355231159950      -1.15228267103560
H         1.56251638879730       1.53769402841833      -0.14803305309348
H         1.30720096997600       0.32029065870809      -1.41306233635265
H        -3.02847814982509       1.39355425095083      -0.46559525841153
H        -2.51273245572381       0.87285585100372       1.14016497249459
H        -1.77891422540159      -1.67732176820368       1.42536440543802
H        -1.85969345867974      -2.70410116877049      -0.00366394983949
H        -3.71305117154827      -0.98082213247154       0.07736024336139
H        -2.71033732239553      -0.85681732884695      -1.37792298479878
H         0.87775492707872      -0.34804501991402       2.16876871819295
H         0.40782435504126       1.35921185928619       1.94365820265937
H        -0.83112249240253       0.10176051754692       2.18896740757610
H         2.77246225793426      -0.11360975967015       1.24653659453740
H         2.43253043615310      -1.39765442095975       0.08434662385263
H         3.72581684058889      -0.16962282802110      -1.66139603124248
H         4.05729925143370       1.13027447478249      -0.50207139323594
H         4.70589608877579      -0.49360042882394      -0.22296382178544
P         1.50236534007502      -3.14165602342090       2.94891549231675
F         1.24315392990385      -2.96679733559416       4.54525265864192
F         2.21952040845873      -1.62152971499836       2.90186216292708
F         2.95427870130600      -3.82428116156471       3.19556014700717
F         1.73271239115220      -3.23411395410755       1.28948078711913
F         0.75364984726210      -4.58516369281588       2.92552405171320
F         0.02359893694321      -2.38091830613979       2.63839205797076
