41
C13H24N2O2 optimized with DFTB in AMS.
N        -0.81825498137030      -1.41285980116857      -0.68830280224975
N         1.30319139739645      -1.51472718289507      -0.32100308686749
C        -2.24484623940673      -1.18800517163116      -0.48801835498131
C         2.59367524116141      -1.42283535769246       0.35104485425218
C        -2.65426591106468       0.18691838591167      -1.02492442599474
C         3.28554482604343      -0.09953292795533       0.00994827717348
C         0.11687266224578      -1.31886123678999       0.26185387840705
C        -0.21503582672689      -1.60823638604107      -1.89957361397576
C         1.12597033255455      -1.67377776687131      -1.66675970607058
C        -1.94350246145509       1.33018916935605      -0.29655237960047
C         2.48221846646005       1.11339396104754       0.48365147943298
C        -2.21939790908442       2.66160984978470      -0.99043654420486
C         3.12380988573541       2.40792694004297      -0.00895242591112
H        -2.78654215929543      -1.97752274444115      -1.01738205584255
H        -2.45078563296605      -1.27310440121292       0.58347629232775
H         2.41800480978233      -1.51278454533003       1.42744777388240
H         3.20564424410758      -2.26628333053644       0.01852045041814
H        -3.73871559402360       0.27978570228481      -0.91272140503919
H        -2.40829730529563       0.23728253203857      -2.08805225753560
H         3.41270190153230      -0.03803059073109      -1.07349984969275
H         4.27440147215102      -0.10934920476046       0.47808678386526
H        -0.05763293791477      -1.16477136770882       1.31192696737566
H        -0.77485136850542      -1.68573931147894      -2.81205369442852
H         1.94916583970816      -1.81276481099413      -2.34135412779120
H        -2.26909732683292       1.36853459073490       0.74974391213878
H        -0.86558311350179       1.14472279629975      -0.31268502096559
H         1.46934165255030       1.04734933503837       0.07569580503505
H         2.41210944395689       1.11410195523291       1.57789509833040
H        -3.28925458573760       2.87612743062176      -1.00901414741460
H        -1.84918472490657       2.61876783848643      -2.01504391906710
H        -1.70842763133173       3.46914966481197      -0.46555559116987
H         3.15731257123890       2.40444067148162      -1.09882966335425
H         4.13994768303859       2.50915847218757       0.37576084691351
H         2.53615876128919       3.26480970210534       0.32116921366461
C         0.95178949592587       2.58304938842610      -3.48783281312083
C         0.78401887548369       1.15600317546978      -2.89904920891994
O        -0.37720444794105       0.69941059364402      -2.86668730147111
O         1.82643665206963       0.60234024736011      -2.49251235533188
H         1.85171278604561       2.62506293421783      -4.09901588432217
H         0.08046951956630       2.85511171134336      -4.08054083819594
H         1.05765023291723       3.28484064961081      -2.66061259439812
