29
C9H17ClN2 optimized with ADF in AMS.
N        -0.12371224072642      -1.39097342044333       0.32449276504824
N        -2.07357880695743      -0.44137864083889       0.23238568661064
C         1.25210929660792      -1.72706495632670       0.73388975269077
C         2.25980418430213      -0.89732826570314      -0.05178410613216
C         2.10452605013084       0.61043653973665       0.10945966867169
C        -0.94249097763701      -0.54007936425323       0.95264731459096
C        -0.71958901190742      -1.84622233773273      -0.83750373555011
C        -1.94652893711571      -1.24191464798611      -0.88968458158977
C        -3.18093264264232       0.47351625913360       0.51608572314666
C         3.16070885474077       1.38056786990619      -0.68093634531770
C        -2.98702824376901       1.81147215933218      -0.18218208236002
H         1.31368855543354      -1.55403522453729       1.82029377137638
H         1.39409878973439      -2.79360801710153       0.47013632123303
H         2.18026721208004      -1.21359490150091      -1.10808997065721
H         3.26246523123466      -1.22007878334138       0.28040807516895
H         1.10057022583574       0.91955422093776      -0.23902917100769
H         2.16899976955826       0.88268648440152       1.18169873118999
H        -0.73298399168246      -0.01440821020644       1.87542171651542
H        -0.13738996890205      -2.59209111937312      -1.45452698203604
H        -4.10404790145668      -0.02698655914444       0.18666692098885
H        -3.24287233874605       0.58991318133328       1.60866755137537
H        -2.74615783966578      -1.32826274127301      -1.61623454698961
H         3.09130813229047       1.13993356792011      -1.75315415910398
H         4.17391805496045       1.10934761441588      -0.34503979283697
H         3.04089618523988       2.46806482668020      -0.56281576222610
H        -2.06290963881426       2.29812062512759       0.16279372063768
H        -3.83589693891814       2.47595669544429       0.03570069486380
H        -2.91987245992332       1.67522774816118      -1.27114851955171
Cl        1.48293815021498      -3.78457443436817      -1.78106238064933
