41
C11H24BF4N optimized with ForceField in AMS.
N        -0.22140238149150       0.30919727134672      -0.16859317752503
C        -0.91489139684203       1.28597617177575       0.73440009879130
C        -1.12079029276347       0.01104947778288      -1.33084904482798
C         0.12401805179917      -0.93256857382055       0.60902049708382
C         1.00637193582892       0.96813309198813      -0.73581948271411
C        -2.32313247609652       0.84260583769959       1.18215232354427
C        -2.51317958171303      -0.50553215432095      -0.93150832367075
C        -3.21021508788776       0.49007224693537      -0.00902772586020
C         0.91231237833473      -2.01509456434536      -0.16805790707173
C         2.13469648491542       1.28306077878498       0.27833024758366
C         1.21645582899936      -3.21167281183565       0.73219958637465
C         3.28968482384404       2.01564843177099      -0.40286048085464
H        -0.32609484005254       1.46307747758143       1.65977101887776
H        -1.02318531373579       2.27425641359025       0.23107402715807
H        -1.28267450835363       0.93513122783155      -1.93452237198226
H        -0.65786873612155      -0.71340510703328      -2.03263320791578
H         0.70336079261729      -0.66516050183290       1.52009372138937
H        -0.78940916787623      -1.41978246853818       1.00342187146396
H         1.44008669485417       0.34661853981895      -1.55101180196566
H         0.72575069927855       1.92749328856268      -1.23109511008117
H        -2.26548909300762      -0.01557960022124       1.88356299314386
H        -2.79509351883794       1.67945969908612       1.74000600809455
H        -3.12621748204766      -0.62855985139687      -1.85098987598250
H        -2.44987621159941      -1.50434750373848      -0.45298128159205
H        -4.16352297754845       0.05055942144843       0.35660032614664
H        -3.45471542410953       1.41534760476704      -0.57640319114387
H         0.32274304947143      -2.39018867278244      -1.02867789064057
H         1.87930187130269      -1.61861781663778      -0.53889605758723
H         1.76349498095764       1.92955031891336       1.09884980151881
H         2.54528057649593       0.34920672790766       0.71426602461176
H         1.77630162906744      -3.97910195662418       0.15696073202504
H         0.27253114326270      -3.66662329546965       1.10201707030085
H         1.83481037034519      -2.89618807407412       1.59962483113899
H         4.09487144357819       2.21030822367482       0.33689624861800
H         2.94388531180329       2.98888114645850      -0.81278704570315
H         3.70781770307686       1.39885166840369      -1.22707053600243
B        -4.66376614779142       3.25389000737285       4.10115408249956
F        -5.99455052150661       3.52988533290260       4.51335977357131
F        -4.57719320222687       1.90767839817598       3.65791936800915
F        -3.77899934043275       3.45001852244013       5.19474529677438
F        -4.30550658559072       4.12746083545116       3.03989916800135
