59
C17H21F18N2P optimized with ADF in AMS.
N        -3.06312991397028       0.82605890321354       0.19235584102089
N        -3.73702460527370      -0.86341163662306       1.37560112452146
C        -1.17306061016864       1.38605604029358      -1.33994486566059
C        -0.91062111362716      -0.01831398762176      -1.88061120445661
C        -2.62881846776310       1.63508114296638      -0.95952214322526
C         0.48879684446922      -0.18697080801434      -2.46436001145636
C         0.72272279082958      -1.59446293810223      -3.01121585869954
C        -3.35313840366155      -0.48113525113610       0.15180183820631
C        -3.26848296772682       1.28828580329261       1.47693899992884
C        -3.69594186818144       0.22718507012791       2.22110359601765
C        -4.27734646428483      -2.19273704252051       1.70857339213383
C         2.11436702084715      -1.76416014910735      -3.61312999042257
C        -5.78356989136959      -2.13414766000510       1.90446920885661
H        -0.92826746619514       2.12986605898144      -2.11897330814183
H        -0.51914211605135       1.60133864681786      -0.47544203577197
H        -1.65898509903138      -0.25855218587785      -2.65492376886862
H        -1.04311286502378      -0.76423777076560      -1.07694940135435
H        -2.80240563495046       2.68322506358778      -0.67792011161732
H        -3.30319807354920       1.38556460908493      -1.78979828136890
H         1.24875296002057       0.04119548295725      -1.69315968270091
H         0.63676171184064       0.54853324741303      -3.27697906360358
H        -0.04725882669716      -1.81985373243675      -3.77074022614803
H         0.57276614503487      -2.32940138934998      -2.19942512006534
H        -3.34771398425087      -1.10758382085082      -0.72974521477381
H        -3.10322348762935       2.32496702617983       1.74341626736393
H        -3.97358321245965       0.15619627616377       3.26507558235117
H        -4.01598522560022      -2.85262386305205       0.86996677083959
H        -3.74785596010471      -2.54004969760794       2.60920772051893
H         2.89563601555178      -1.57056690790110      -2.86021202345926
H         2.27028437372556      -1.05898958689633      -4.44557188913950
H         2.26209933596604      -2.78287723847653      -4.00168023968976
H        -6.05498260242951      -1.48084068508115       2.74689795642586
H        -6.15869965724393      -3.14568213762523       2.11518665366547
H        -6.26626461559289      -1.76606915703607       0.98999003485419
P        -5.37971046683078      -1.66384958357765      -2.80522870345284
F        -5.19805578264499      -2.18207759418837      -1.19766785192564
F        -4.11094074391515      -0.53965155295728      -2.66799075755373
F        -6.59549391300121      -2.76566079978227      -2.96811962619503
C        -3.93924295866140      -2.99510838598044      -3.12442241623684
C        -6.57145307590118      -0.22791362597777      -1.97756688296284
C        -5.78781671884309      -1.04263490053682      -4.65969836365598
C        -4.24126089241510      -4.52024663602917      -2.99459273723624
C        -6.74858976842833       1.25704104640935      -2.46729430954161
C        -5.44811832119348      -1.80778883881263      -5.97983687193403
F        -2.92606192935052      -2.78455035620248      -2.18296391789529
F        -3.33574159440113      -2.81937962246463      -4.34327674168428
F        -6.07034378015676       0.00481481428104      -0.69001182226995
F        -7.84131034752335      -0.71839281405723      -1.81992559223846
F        -5.27841149499978       0.22494702265471      -4.85116279149167
F        -7.16354471314314      -0.94207824830831      -4.67694991221245
F        -3.08951338320788      -5.21631954452844      -3.22769203832131
F        -5.16341073143627      -4.94383225728186      -3.87924827552753
F        -4.66103476663109      -4.83615929661930      -1.74386710625704
F        -7.43365802217581       1.93752165809460      -1.49888374151967
F        -5.54569030765126       1.87900233548456      -2.61210920299990
F        -7.44409622529982       1.39381588122992      -3.60723969804007
F        -4.18363647109844      -1.55770474744948      -6.39369427512097
F        -6.28044235697780      -1.37616837938059      -6.96666880666321
F        -5.62250443616091      -3.14039513531151      -5.84754041454404
