24
C6H9F3N2O3S optimized with ADF in AMS.
N         1.32158231202645      -0.02609844284540       0.03317918901494
N        -0.82669235929183      -0.26662913404965       0.21017286155612
C         0.33124821817345      -0.92373170115330       0.07793507409812
C         0.78622760912829       1.23594077663254       0.19150154756718
C        -0.56359005831624       1.08262450344944       0.30947911716298
C         2.74362146309226      -0.34746943033519      -0.03659484321132
C        -2.10204727903542      -0.90712933750387       0.51296868145907
H         0.46488315890067      -1.99818168562401       0.09576124656759
H         1.40441159141629       2.12417835998647       0.20552263150396
H        -1.34893207473446       1.81009123134764       0.46841478750174
H         2.85876801588325      -1.35803932203629      -0.43955100433492
H         3.23516190436130       0.38033576166472      -0.69312726506231
H         3.16155671115627      -0.33290689045262       0.97748398592006
H        -2.13595997765879      -1.08418939163674       1.59723742084285
H        -2.91383133555912      -0.25017371717493       0.18126694985614
H        -2.15865235138398      -1.86332250996440      -0.01814238937773
S         0.85879794755829      -2.24246410302143       3.04046825636213
O         1.31404060134283      -2.43095850407687       4.41410033997034
O         1.88694447202968      -2.37186382125172       1.97831146139427
O        -0.09643861536788      -1.13491152554304       2.80669250609175
C        -0.20913620315067      -3.75621584688602       2.70716765094130
F        -1.30929896846734      -3.79195251027927       3.50225938555101
F         0.47462047448065      -4.91175112617723       2.87970971402282
F        -0.66765353638392      -3.75066935406883       1.39730959380191
