47
C13H25F6N2P optimized with ADF in AMS.
N         1.64689438585162       1.87242589429358       0.36300874585839
N        -0.35768366061872       1.74254033672322       1.19212806522085
C         2.81742011413697       1.63168096758277      -0.49480398433885
C        -1.79861360586743       1.47578673256828       1.36859063697197
C         3.43143266037770       0.25289280128429      -0.24227737415436
C        -2.35781034936167       0.42811327944607       0.41612402267969
C         2.68009796127383      -0.88666498873295      -0.92768297898702
C        -1.77107844416589      -0.96830872141951       0.61428731381773
C         0.37719617719878       1.53278768083787       0.09163099458455
C         1.72026686181235       2.29573940595942       1.67156043601090
C         0.46315099959824       2.21716988473840       2.18928077081359
C         3.18449571963611      -2.26287522432121      -0.49347002749221
C        -2.49044828546756      -2.04412265308918      -0.19565763004172
C         2.43302422615575      -3.39976351523213      -1.18064705183715
C        -1.86716486931700      -3.42204898281638       0.01906655462960
H         3.52770866005050       2.44329397984139      -0.27461048195075
H         2.49390229346766       1.74810861958898      -1.54069104371970
H        -2.32440892772891       2.43917314657584       1.26497205715672
H        -1.89685865322483       1.12026176688383       2.40447167692128
H         3.46256650949975       0.07100416399933       0.84624726069353
H         4.47605764651596       0.28190561667268      -0.59983107280655
H        -3.44550814472104       0.40157717392316       0.61375290862781
H        -2.26335878736757       0.76360517429583      -0.63459748347111
H         2.76764511375286      -0.77853410281257      -2.02684361713580
H         1.60757811126500      -0.82832858202609      -0.67266306119425
H        -1.80526453522525      -1.22790442335269       1.68649341016615
H        -0.69750420968835      -0.98081904516180       0.36740926086143
H         0.01917089476903       1.13879600907360      -0.84820188763338
H         2.66213590429227       2.54728214141408       2.14088283876779
H         0.10210985092515       2.38279636872880       3.19543258852436
H         3.06393911945374      -2.34568920575966       0.59989665654391
H         4.26669472151935      -2.34183978472569      -0.70905300713474
H        -3.55818815794550      -2.06786178874366       0.09373254288805
H        -2.46724738542363      -1.78363206570775      -1.27141430968675
H         2.53694072804693      -3.34972318638708      -2.27744133708596
H         1.36005774956486      -3.35343185423519      -0.93780425989284
H         2.80233660094087      -4.38232867163046      -0.84960508628560
H        -1.87169472381204      -3.69007700101139       1.08692588949452
H        -0.81667635455743      -3.43055561691997      -0.30812561503045
H        -2.40466369945883      -4.20393902192074      -0.53868141494284
P         1.19374185129797      -1.20615003979864       3.32847146112984
F        -0.14120622243650      -0.21837373288217       3.57833409275979
F         1.20179727764306      -0.72111136719655       1.71865136100026
F         2.18725449309372       0.08166702445417       3.67672798753952
F         2.51083792858243      -2.14901483075535       3.02873743987063
F         1.17540201076456      -1.64521788868360       4.90173643557235
F         0.18410236210116      -2.44557099896318       2.92646705971683
