42
C10H18F6N2O4S2 optimized with ADF in AMS.
N         1.48811587852255       0.11790804130392      -1.06176070502871
C         1.26397182960826      -0.30517941523706      -2.50445752497850
C         0.08102029552864       0.11933362268289      -0.51129769375140
C         0.01897820265229       0.45984583840172      -2.93968108366195
C        -0.77974983999683       0.71213344374274      -1.63182192369758
C         2.40078297836086      -0.86638792018809      -0.35745089629326
C         2.07300668966086       1.50093142073074      -1.01950589147957
C         2.51997712854092      -0.66288800823383       1.14365461190530
C         3.54330887979200      -1.64511536403261       1.71667795256998
H         1.07966707544365      -1.38959838694297      -2.46969483881814
H         2.18328216993945      -0.11206483136889      -3.07087727957565
H         0.05543831035918       0.67808676809218       0.43214943097974
H        -0.17475568125137      -0.93345716603633      -0.31753377229629
H        -0.55029947695740      -0.13050822194737      -3.67111532829191
H         0.29184841462076       1.40500285101024      -3.43047385239595
H        -0.94902763402974       1.78673524256072      -1.47319422685818
H        -1.76586391665968       0.22688896234745      -1.64361994623932
H         3.37501070381356      -0.77416076795239      -0.85979130529852
H         1.98929718093507      -1.86473568473341      -0.57742164996239
H         3.07037766827645       1.48317656298926      -1.47336232207453
H         1.42008466686682       2.17913194484804      -1.57946521364106
H         2.13701576911032       1.82524305916705       0.02450955420611
H         2.84950857178009       0.36263167637153       1.36995804930182
H         1.54302770986263      -0.81773644989462       1.63279887678433
H         3.62143040050449      -1.52284207014930       2.80613690397797
H         3.25767001397687      -2.68866265868384       1.51107082908794
H         4.53726084304840      -1.46680022200722       1.28211899810530
N         6.46481859630317       1.30280775191338      -3.04234431650233
S         5.26510572044177       0.50341521520241      -3.72762581573855
S         6.22376497031662       2.20680474390050      -1.73087245020317
C         4.27059511461865       1.81027582107788      -4.72622748918070
C         6.32554773568792       0.96908320807856      -0.25646524409238
O         5.80139018520499      -0.37076232617441      -4.75507925849260
O         4.26111278600269      -0.04054525965820      -2.79029922399164
O         4.87467113113764       2.77090582350969      -1.61397933595935
O         7.38649187964842       3.05324940987787      -1.53966758119149
F         3.84234764518194       1.25616085647502      -5.88697799013122
F         5.02043259666674       2.88955787142240      -5.01120586999255
F         3.16173155636085       2.22541021842531      -4.04495278070018
F         5.11490155786551       0.89703057152900       0.37801754674274
F         7.23257216554527       1.38925718451157       0.64879714262271
F         6.65590332860876      -0.28202410403153      -0.64828913626487
