50
C14H28F3NO3S optimized with ADF in AMS.
N        -0.82258203823284       0.05816053013498      -0.05410399874468
C        -2.17532892404106       0.28618792136818      -0.69681338550195
C        -0.33491607914032      -1.34589865196034      -0.40146298494447
C         0.12335658286026       1.09018737429128      -0.65190640750770
C        -0.89637922617234       0.19010144672976       1.46183941735985
C        -3.20569665208158      -0.76422627546346      -0.32010940736231
C        -1.34622040200218      -2.42521941159706      -0.05762802227272
C        -2.71020991689885      -2.16241737736212      -0.68712184430958
C         1.56023576370576       1.06125127582004      -0.13954039056164
C        -1.28905329062951       1.56447875503166       1.96150087800635
C         2.54432036335989       0.26462812282510      -0.99966149865674
C         3.91807915238645       0.17726891866767      -0.34066803714220
C         4.92042114428389      -0.62101943383025      -1.17029904046762
C         6.26906956515003      -0.77469854650365      -0.47282815583413
H        -1.99246997985913       0.26220553413923      -1.78340983546557
H        -2.49617944791157       1.30235714835781      -0.42796677217005
H         0.59981489264426      -1.49490798849970       0.16087696017163
H        -0.13310111529350      -1.31969623857441      -1.48473947495772
H        -0.35312837626879       2.06196027849602      -0.46004674057272
H         0.08983016721811       0.91723894355160      -1.74045780321911
H        -1.60223339707364      -0.57336924183246       1.80499343852837
H         0.08450492703472      -0.12859045573470       1.84018971877931
H        -4.13535684411397      -0.51742541387234      -0.85950949029195
H        -3.44233805649561      -0.70643249434563       0.75533457101849
H        -1.40459698186244      -2.53744021732657       1.03595700665316
H        -0.91998632215970      -3.37441987391366      -0.41927203917845
H        -3.43540936252904      -2.92296928215448      -0.35830653794323
H        -2.63644756405143      -2.23727743272075      -1.78816448210890
H         1.90373736343216       2.10916804669393      -0.08517522376896
H         1.60336377521758       0.67203569421544       0.88934096411140
H        -0.55688555999925       2.34000512460528       1.69623941132150
H        -2.28662693494997       1.88325683604519       1.62362381815396
H        -1.31930201995195       1.50980523085261       3.06004390821802
H         2.62654426417482       0.73090444987927      -2.00049225330738
H         2.17413774096699      -0.76156616604998      -1.15329753605812
H         3.79464110239192      -0.30358321105370       0.64591817291896
H         4.31254991264967       1.19584309295942      -0.16083159357737
H         4.49776537295633      -1.62244520454691      -1.37073488580962
H         5.05921155087643      -0.13447021405894      -2.15410832652943
H         6.15066900567974      -1.30103861237322       0.48796144368715
H         6.97617797194014      -1.34801811969615      -1.09080489932828
H         6.72086401022994       0.20914945073930      -0.26384716607815
S         1.40673124356598      -2.53699162802422       2.79904736538807
O         1.88368550705283      -1.46698749222566       1.87553171990003
O        -0.06593022084120      -2.63237751478847       2.86675195281955
O         2.13409029772267      -2.64917357204516       4.06056372529361
C         1.88997265271783      -4.09150141789840       1.86684965583191
F         3.23840565091264      -4.21448799713976       1.77023877743378
F         1.39304325253450      -4.08017625488863       0.58357954079790
F         1.40399037069436      -5.20082515552299       2.47759642867776
