47
C13H28BF4N optimized with DFTB in AMS.
N        -0.27855712218321       0.75857266902493      -0.12925745853822
C        -1.24958521724395       0.72300986328427      -1.27559657910319
C        -0.68503025504204       1.85920840034408       0.81365211946135
C         1.06095390187068       1.09838460987290      -0.73857433369194
C        -0.22692215502035      -0.53826746060321       0.62181929212720
C        -2.69867847907907       0.57205558740154      -0.83532970774344
C        -2.12848404803790       1.74739219757902       1.28451848978020
C        -3.08324440102539       1.72158085484825       0.09347311972365
C         2.20745042736770       1.27873810435627       0.24885453459443
C         0.28185205622728      -1.73776009060034      -0.17552018671963
C         3.46608579069474       1.66369738986861      -0.53994597591063
C         0.17148895931358      -3.00186035488236       0.68664312939947
C         4.65513095058332       1.87439719938083       0.39347073014907
C         0.68950743603449      -4.22602825601879      -0.06514618812391
H        -0.95407557282588      -0.08935247468757      -1.94163629229276
H        -1.12962820901055       1.67473568291928      -1.80066879944274
H        -0.54621805079835       2.79555130305877       0.27034489181398
H        -0.00493041388721       1.83408737317515       1.66581008421785
H         0.92104138574938       2.02951665840551      -1.28885768451212
H         1.29338868491149       0.30862080228173      -1.45663812987227
H        -1.23540915046243      -0.74785729681862       0.98346557850794
H         0.41599067611398      -0.37534147909111       1.49032933166839
H        -2.86696834264662      -0.39130166833420      -0.34414305525059
H        -3.31615639386621       0.59789727980153      -1.73702383407093
H        -2.33141169087228       2.62609067765077       1.90223029788634
H        -2.27680599476351       0.86111996633068       1.90971705135396
H        -3.01036701712084       2.66767819966735      -0.45126398332392
H        -4.11210638352609       1.59732576346039       0.43920448875716
H         2.39028759947100       0.36377712952634       0.82169211755181
H         1.97588292081826       2.08860088334504       0.94437044882377
H         1.32623196524070      -1.59348222158929      -0.46211654462889
H        -0.30589573616207      -1.87357691198839      -1.08695182797077
H         3.26334405653869       2.58380222416709      -1.09585705037379
H         3.70149186013280       0.87451511972151      -1.26264034529719
H        -0.87479545132027      -3.16057344662916       0.96827390210114
H         0.74976747896269      -2.86542985521490       1.60635498508994
H         4.87457629532966       0.96242756635803       0.95190405188837
H         4.44512594195749       2.67498239902956       1.10344478826695
H         5.53657310785151       2.14733184834356      -0.18661678538738
H         1.73758368385663      -4.09312198938450      -0.33540570301025
H         0.11272082331235      -4.38735544639037      -0.97654179355504
H         0.60172398656809      -5.11154008802295       0.56384614990786
B         0.62518202068742       4.31045089623804      -1.42632213374089
F         0.48691182613175       5.64292282956981      -1.67175409968666
F        -0.62742132292483       3.62507114350576      -1.60408807769537
F         1.01869792766172       4.05734281036506      -0.08534216560216
F         1.55987530293164       3.69319645927415      -2.26981874362620
