32
C10H18N2O2 optimized with DFTB in AMS.
N        -0.55999556341996      -1.40795667325284      -0.30450098035979
N         1.51315731235168      -0.90164248945970      -0.26086930816454
C        -1.92627592685718      -1.67933975534563       0.12500457656732
C        -2.81334380802799      -0.45479792101457      -0.11354384881675
C         0.45825050711882      -1.16313863692043       0.52236236758630
C        -0.15645632570176      -1.29794018279956      -1.61148755835928
C         2.83378355368137      -0.55590912113156       0.25276038404149
C         1.16189538437633      -0.97553379727808      -1.58374092841746
C        -2.35168156370907       0.74610668176801       0.70977283015857
C         2.76434635591395       0.73146227719637       1.06800722023366
H        -1.88858235258517      -1.91665752584257       1.19194270821596
H        -2.29956327846780      -2.54142256398920      -0.43532762084313
H        -2.81555671315211      -0.20273981342756      -1.17959058396475
H        -3.83393365693518      -0.72587741319209       0.17200781673819
H         0.52705299083700      -1.10214619561251       1.74319486154370
H        -0.82420438699967      -1.46153829220475      -2.43934152459850
H         3.18599773421664      -1.38303483051578       0.87716490426168
H         3.50848547385301      -0.44339847127989      -0.60046604817429
H         1.86236148444633      -0.80261202098923      -2.38235146267425
H        -1.35455302534670       1.06147899628475       0.39988554652049
H        -2.31903595160137       0.48324191129266       1.76697623084903
H        -3.04061170836537       1.57897146257328       0.57033079042093
H         2.33720201357766       1.53621883438156       0.47008605116510
H         3.76960602765666       1.01356440544371       1.37867969702570
H         2.14944900253630       0.58278951105462       1.95508297140950
C        -0.28166433559792      -0.86501225417980       5.20643794780805
C        -0.34094940071176      -1.00393794137534       3.67968183674462
O         0.78489066092317      -0.93964597248341       3.08773675067423
O        -1.43103691748396      -1.16286191745098       3.12948823202981
H         0.34732075301373      -1.65623833391746       5.61201970163174
H         0.16454466449273       0.09526262274246       5.46092985789276
H        -1.28138450823243      -0.93288206517447       5.62951780825389
