58
C18H34F3NO2 optimized with DFTB in AMS.
N        -0.13017807598901       2.31945122213269       0.90251066660845
C        -0.85680299889973       3.46818680579493       0.26173055338127
C         0.40911989880598       2.92868676457398       2.15818475082618
C        -1.07589677290781       1.20357092924877       1.22374786497453
C         0.97769392237978       1.87101073507146      -0.01004885145426
C         0.02169073805039       4.68606365364651       0.51948133543267
C         0.86264986948158       4.33049743857121       1.75555097239788
C        -1.63337468359192       0.50421275739064      -0.01618992857512
C         1.85156589100030       0.74683111145384       0.53233722488548
C        -2.83292832692001      -0.36662439312120       0.37003277093517
C         2.87072174661242       0.36141442112468      -0.54872169952630
C        -3.38607966681798      -1.09566714586182      -0.85844604210654
C         3.79007562590978      -0.76367655598148      -0.06633773072239
C        -4.59375369828084      -1.96366150138832      -0.49264892042698
C         4.80173796322814      -1.15067334067647      -1.14971333004063
C        -5.14876759549231      -2.68651831289410      -1.71884160475655
C         5.72165791723825      -2.27490772598899      -0.67695045273891
H        -0.99773608263522       3.25498714819552      -0.79840534684147
H        -1.82631795760704       3.56193525601930       0.75698392463666
H        -0.41104253225102       2.97491585724148       2.87913401667795
H         1.20603094976600       2.30752599734639       2.56451017184166
H        -0.54435539298269       0.49434047902652       1.86362416308385
H        -1.89118459718480       1.64277430248062       1.80626024738585
H         0.49841972832113       1.55785191978891      -0.93853300871171
H         1.58391400669399       2.74951444279351      -0.23289783195788
H         0.65827238824776       4.87384585053885      -0.34789746030369
H        -0.59665585590970       5.56804654524432       0.69259798827735
H         0.69361810901203       5.02791256429344       2.57801347494222
H         1.92810138345005       4.33829009527605       1.51740942810645
H        -1.93914880505631       1.24076977863620      -0.76232116777338
H        -0.86411261067070      -0.12488824221500      -0.47006438321125
H         2.38585979409854       1.05974928244861       1.43489723939508
H         1.24886455176227      -0.13040202798300       0.78402123674619
H        -2.52854571322850      -1.09751066545914       1.12775438478617
H        -3.61610912226213       0.26254886456740       0.80729777367174
H         3.46918420043433       1.23932050395233      -0.81136674501225
H         2.33673735001541       0.03968679688479      -1.44815211492723
H        -3.67841846003080      -0.35972024552355      -1.61416281746180
H        -2.60054415061741      -1.72410090622382      -1.29091974092309
H         4.32326372478249      -0.43903661304573       0.83427178485947
H         3.18662259495415      -1.63845401249343       0.20054918670290
H        -5.37634995272353      -1.33363079262517      -0.05596195381899
H        -4.29818890261441      -2.70053031765854       0.26237177280244
H         4.26559445800449      -1.47235757425732      -2.04853047110339
H         5.40314374943089      -0.27474910162829      -1.41450532610632
H        -5.46655077410973      -1.96710985190402      -2.47450868090228
H        -6.00704638032330      -3.29672582748268      -1.43671926924857
H        -4.38890809576496      -3.33568000397249      -2.15591580365869
H         5.14185743804470      -3.16528269001953      -0.42922858764970
H         6.43229020808132      -2.53094544068080      -1.46293314670228
H         6.27927532614543      -1.96664425145430       0.20874113557104
C         0.12813315898710       2.98804690647934      -2.93864704548312
O        -0.73616904528144       2.18983366692851      -2.55520476857868
O         0.88506775798555       3.70679350029794      -2.28500852669185
C         0.29822491628767       3.06981430679862      -4.52649695454749
F         0.94987711269379       1.98452739744529      -4.99188549066166
F         0.99817636977575       4.14311971685297      -4.92015709265816
F        -0.88464880982822       3.11678832769349      -5.16118356564601
