29
C9H14BF4N optimized with ADF in AMS.
N         0.95544174662866       0.18833456449231       0.69027549387133
C        -1.42186627125497       0.02908434460919       0.01840749425569
C        -0.44075530512560       0.12194139772071       1.17832146549653
C        -2.86577553500096      -0.04615317633579       0.51086580256534
C        -3.86102927738376      -0.13248718742936      -0.64274603448572
C         1.51722757769965       1.39068457401464       0.45616569782820
C         1.66935730863518      -0.94736097395211       0.56415146295701
C         2.82292284160798       1.48280560878216       0.01639703215914
C         2.97936580471543      -0.90967133200635       0.12717058806468
C         3.56735113358361       0.31960157122648      -0.14731927746694
H        -1.18948533628319      -0.86237144459485      -0.59326328839270
H        -1.29925916486629       0.90681048423887      -0.64298856534028
H        -0.49547204138697      -0.73885996773433       1.85907043504270
H        -0.59602224057676       1.01000368732346       1.80697004509705
H        -2.97908547680265      -0.92329645243970       1.17260255745534
H        -3.08558594229922       0.84049644764418       1.13194509139224
H        -4.89570264243376      -0.18849687442609      -0.27407829977998
H        -3.78311298843541       0.75048714371453      -1.29721347081159
H        -3.67375894776543      -1.02617168647988      -1.25963817731353
H         0.89035190554620       2.25790920620162       0.64583923861027
H         1.15882360498694      -1.86724852646934       0.83583420462200
H         3.25728575883215       2.46707157558889      -0.15026036002757
H         3.53869737471766      -1.84046668129699       0.05014971472133
H         4.61111270801353       0.37343046205221      -0.45917304801359
B         1.67527723562822       0.36975591228225       3.84024230730418
F         2.36575923005309       0.48075164714068       5.04618218558835
F         1.92123086547708       1.52953760097848       3.01476908761619
F         0.26830580995319       0.25860064705659       4.03954212917676
F         2.11840399483641      -0.79685007060248       3.11225936890758
