46
C14H12F18NP optimized with ADF in AMS.
N        -0.25557130752473       0.05939987760480       0.91085217674641
C         0.81592924802556       0.18608547699956      -0.10937164575212
C         2.17730835732109      -0.17509984937798       0.46767023644744
C         3.26394993184905      -0.09916550651921      -0.59837001584667
C        -0.64740853707939       1.14026774820582       1.61767359458039
C        -0.77119537465846      -1.16309658516733       1.17004167114627
C        -1.61727363927394       1.02804924002365       2.59304265081422
C        -1.73151605727732      -1.32686603349401       2.14414181127574
C        -2.16627171235264      -0.21861173508148       2.86546578819373
H         0.53671812752210      -0.47485989769533      -0.94537654839171
H         0.78698996399576       1.22308873686800      -0.47672046833622
H         2.12846575594523      -1.18770895123797       0.89831022818849
H         2.40143952043659       0.49564488392943       1.31120026869261
H         3.06787719646271      -0.79762436710527      -1.42719277226051
H         4.23521095034702      -0.36477090681202      -0.15684293474621
H         3.35078880613087       0.91551057754000      -1.01781641846133
H        -0.14677977831588       2.07713509405393       1.38331841650130
H        -0.37293861394254      -1.98636881376904       0.58068161143112
H        -1.90108010500114       1.91022080733807       3.16378206097215
H        -2.11203307308751      -2.32604761050962       2.35233797754603
H        -2.90515688734339      -0.33116545339687       3.65858976102863
P         1.37780081516403      -0.46636516241844       5.02706122331416
F         1.52067685070869       0.14667015559582       3.45778073310923
F        -0.19943973151323      -0.94781278347434       4.71594541513786
F         2.94170773811531      -0.02061696771728       5.34790158642811
C         1.98574425151216      -2.14423098407761       4.16601855015954
C         0.72030878604118       1.41940840410938       5.51528873431614
C         1.20694457335716      -1.07719190822685       6.94395077703363
C         3.47470909083025      -2.25857796724714       3.70463065813016
C        -0.58484744783436       1.72634669298156       6.32873195813262
C         1.88011003138899      -2.32573302041186       7.60974462769546
F         1.24710195097594      -2.35119528035425       2.99773614321533
F         1.74903190841241      -3.25726715850955       4.93351642723797
F         0.45890639215270       2.10837711638776       4.32532783101285
F         1.71319491211850       2.13114055292380       6.13511473069204
F        -0.13123749564768      -1.21069685766730       7.25824488374244
F         1.70417157098494      -0.02190923483914       7.68198113283717
F         3.62848428438530      -3.40990227982633       2.97969884814000
F         4.32598229678692      -2.31662553502628       4.74532350145776
F         3.84577563305921      -1.23093547726438       2.90095578498014
F        -0.83710392504368       3.06902081704854       6.25883850816808
F        -1.66668547967060       1.09434258403834       5.78529908236217
F        -0.51484104310996       1.40780621139724       7.63080830325056
F         1.18563903482543      -3.46524276229705       7.38131826754229
F         1.89747205940128      -2.14553850815888       8.96123483866301
F         3.15824216612007      -2.48831973816288       7.20302039727153
