36
C10H20F3NO2 optimized with DFTB in AMS.
N         0.37988191795214       0.25629505289712      -0.06773180955686
C        -0.03980288564675      -0.11833081474973       1.33148154747893
C        -0.72507729515954       0.03615149111791      -1.06371208661831
C         1.54933225686382      -0.61428860607187      -0.46216601648878
C         0.74895017008179       1.71939675257931      -0.07867166993329
C        -0.56026309542879      -1.53839812203112       1.48741252779381
C        -2.04669267629649       0.71680338170330      -0.73702425517641
C         2.26415638412164      -0.21733632206255      -1.74161610584718
C         1.93133901238072       2.10412879703845       0.79660268035801
H         0.84278420527330      -0.00303759654151       1.96380020390433
H        -0.79787246125387       0.60163590466324       1.64810423881003
H        -0.35904124347961       0.40112131689895      -2.02595806093669
H        -0.87693416388747      -1.04242783450974      -1.14386747351275
H         2.24881488171458      -0.58907402081152       0.37772202336788
H         1.16393012525809      -1.63095565705777      -0.56024779255798
H         0.94845289270625       1.98653138917402      -1.11936357296437
H        -0.13751641488944       2.26698631008232       0.25046821870752
H        -0.85083632717447      -1.65983844457514       2.53097968576229
H        -1.43177930091217      -1.73931456750459       0.86610551788471
H         0.21351134062409      -2.27155352105969       1.26775297116291
H        -2.75043997330859       0.46201476787839      -1.52969009220053
H        -2.46113571250630       0.37063713452027       0.20759188387353
H        -1.94971277349265       1.80050920535374      -0.70600052277058
H         3.04705773339190      -0.95934932232672      -1.89985552331095
H         1.60451795132363      -0.21853689916780      -2.60906331723854
H         2.74480496512444       0.75469836421103      -1.65484931204834
H         2.10862467323671       3.16995288648793       0.65053910247372
H         1.72988689724796       1.92712369632117       1.85019165088701
H         2.83346787414707       1.56172572393256       0.52809383785203
C         4.00493877843773      -0.63723257562617       2.43030943453131
O         2.83944364316581      -0.25122315665571       2.25070997734867
O         4.67456831722591      -0.85310349709195       3.41040819782371
C         4.74378288244389      -0.89901849765627       0.98641167358744
F         4.60248713473621       0.18822367129405       0.17319433417746
F         4.13916813205040      -1.91457060856189       0.30966785393578
F         6.04507248842808      -1.18121189189205       1.02677454984052
