37
C9H17F2N3O4S2 optimized with ForceField in AMS.
N        -0.01730174142500      -1.31454457686154       0.40521894159986
N        -2.04367103926422      -0.40849304867393       0.28672345862656
C         1.34223048271187      -1.60233847900390       0.85717471656470
C         2.37451208923648      -0.85950133243273      -0.00149425431534
C         2.22602647223216       0.66524677437931       0.11663829245044
C        -0.92608196764465      -0.53865390745703       1.02734847173953
C        -0.58192416602573      -1.69561228748394      -0.75847767115794
C        -1.83865215816832      -1.13083041520963      -0.83354344604601
C        -3.20441818363072       0.42209000767696       0.59358952235437
C         3.31834061205961       1.38992639342501      -0.66350263259744
C        -3.17947058335592       1.69334260903214      -0.24676039749900
H         1.46197992625050      -1.30518918666850       1.92246401444289
H         1.52513498137301      -2.69683119162168       0.79201902595555
H         2.26248301047708      -1.16766114162380      -1.06405579173624
H         3.39062775280754      -1.15841634456321       0.33655004301155
H         1.23760658947886       0.98139445995307      -0.28210224585091
H         2.28722957527533       0.96845249293525       1.18449380093509
H        -0.75955618290204      -0.04361854978720       1.97612832646225
H        -0.10680327387930      -2.31884942511689      -1.50383474694728
H        -4.13589114220314      -0.14789944160414       0.38808417460700
H        -3.19811772266051       0.70076580703159       1.67020138254881
H        -2.54165323115207      -1.22316506936817      -1.65121453618257
H         3.27185831271927       1.11626944283301      -1.73919444391321
H         4.31898563667554       1.12762051652635      -0.25879823654247
H         3.17448941293822       2.48713665356359      -0.56907869300774
H        -2.25147211833836       2.26724600796099      -0.03669421113770
H        -4.05754820940475       2.32491003735404       0.00343671805094
H        -3.21535281044896       1.43975254660217      -1.32742995973838
N         1.00397532129729      -3.41985525119031      -6.25491936966656
S         1.24389851361545      -2.56083916879769      -4.88297516194404
S         2.25835764926891      -4.03401531531429      -7.10755233801763
F         1.96060488569412      -1.09621251816075      -5.26185651389774
F         2.92519021313951      -5.31804083970958      -6.26566068432389
O        -0.07642402228188      -2.31036579315629      -4.21259550988870
O         2.14998658534035      -3.31954929562018      -3.95458726553150
O         3.31206932901057      -2.98051368663244      -7.30266715302345
O         1.76908758168391      -4.51616714081566      -8.44341554688377
