40
C12H8F18NP optimized with DFTB in AMS.
N        -2.33828181598839       0.93644601831868      -0.43387718730754
C        -1.10922387098534       1.42981713746300      -0.20473778543532
C        -3.24544150655735       0.85007179369428       0.54899541408054
C        -2.71677390428561       0.60083332627505      -1.80590057189491
C        -0.74482865938753       1.83935586644710       1.05827306564338
C        -2.92392295464657       1.24111499086352       1.83514253760701
C        -1.66285224203646       1.75035106929650       2.09915748901061
H        -0.44446612739270       1.50267351192323      -1.05681228733933
H        -4.22867856276881       0.48221409188274       0.28480980544895
H        -3.64249074481119       0.03155852031636      -1.79745601328445
H        -2.86432552982421       1.53472490426858      -2.34974828963124
H        -1.91909378480209       0.02394865485022      -2.27078852229328
H         0.24391150698411       2.24943898136911       1.21790177197193
H        -3.67797428066715       1.17558908690178       2.60878619221942
H        -1.39982046241873       2.08757511909271       3.09413790411708
P        -4.53218560370588       4.28178267137993      -1.11487252627266
F        -4.01702257927917       3.29636430718056      -2.41068593008241
F        -4.19226731902781       2.95408667666556      -0.07115978432996
F        -4.84259272744176       5.56234486152008      -2.13222653740391
C        -2.65052639106953       4.85156103254450      -0.99540258836412
C        -6.30698831580877       3.53516658226769      -1.50065664260536
C        -5.05956341805957       5.27164517463007       0.52530370405894
C        -1.74426444415405       4.67177606213981      -2.24380858566037
C        -6.58667690103739       2.07609483097937      -1.04972334527132
C        -5.63124153259664       6.71307909949835       0.45870800662834
F        -1.99239578361919       4.18762091560791      -0.01163537928866
F        -2.61351744246616       6.15532595028657      -0.68263485586610
F        -6.48545987561458       3.54859854664561      -2.83178281470555
F        -7.27721963827120       4.29667778846562      -0.96982530667041
F        -3.98466671786690       5.32178917941758       1.33973153125880
F        -5.97881987288823       4.51548087596273       1.16109395270204
F        -0.60096031764158       5.33979181751407      -2.08397624637046
F        -2.30360513520199       5.07440087917288      -3.36938496862062
F        -1.41121347613138       3.36960291686639      -2.37839900063537
F        -7.75979781554733       1.65099974093974      -1.50766352744811
F        -5.64708809812981       1.23556199456708      -1.52447888212217
F        -6.59303069542653       1.94459376901260       0.27451755679764
F        -5.96513776378160       7.12901010942704       1.68261041971152
F        -6.71744038691400       6.76885237543649      -0.30388225490835
F        -4.73396736483101       7.56235283990886      -0.03018087964424
