26
C8H15ClN2 optimized with ADF in AMS.
H         0.43407791054450      -0.33491535283439      -4.84902673023399
H        -1.06522465141425      -0.99834740614940      -4.13208948560500
H         0.44103110826651      -1.96061488669027      -4.08047573954609
C         0.02472005811430      -0.94595155656530      -4.03404851543184
H         2.21866335748781       0.84699118370221      -0.24139489051013
H         2.51367741205644      -0.43884769933346      -2.82171335047720
H        -1.59962617367947       0.10604390328015      -1.95027072778503
N         0.35920919360475      -0.34209428302320      -2.75319252065979
C        -0.52218199181102       0.12626508159779      -1.85092219093979
N         0.16583333449258       0.61855001541737      -0.81657292648357
C         1.52165826208681       0.46318800078067      -1.03797002444656
C         1.63671921839403      -0.13971770757103      -2.26032944211682
C        -0.39981454737510       1.16262975137469       0.42851062160521
H         0.28950124765940       1.97425724917070       0.73832647441401
H        -1.40538057632463       1.54749615491706       0.19627477083174
C        -0.40670728995875       0.10320813972616       1.52232594731954
H         0.61866443428687      -0.30257666331199       1.58803366100665
H        -1.10415536589973      -0.71727441754309       1.26425107739125
C        -0.75300877273412       0.72488258712202       2.87146693010297
H         0.01951647971726       1.48554649648532       3.08398874995670
H        -1.73015616512381       1.24074928398847       2.81511016878063
C        -0.77321350139955      -0.31730797886605       3.98495874302734
H         0.21536890678433      -0.79450763621178       4.07754584034330
H        -1.51635073335686      -1.10611034108817       3.78245792074469
H        -1.01839558279215       0.14082566488600       4.95452525334927
Cl        2.56024186397383       1.80327956863954       1.55903534426249
