66
C18H28F18NP optimized with DFTB in AMS.
N         0.95280145243795      -0.18229601428940       0.62626237833409
C        -0.10251917716882      -0.05604713424561       1.69938762261719
C         0.54860516004461      -1.16999661622860      -0.43315831477984
C         2.23497380556748      -0.66684870216110       1.26568065537692
C         1.14052055585632       1.16321726708112      -0.02405652528672
C        -0.63537544160641      -1.37559470000731       2.25698579805946
C        -0.78422823839539      -0.88575875046983      -1.12618922430428
C         3.44587808367857      -0.69667520732900       0.33481780694735
C         1.66091592738104       2.26719098641320       0.89481762250344
C        -1.65943284604232      -1.07207111544290       3.35143224875300
C        -1.10986884903360      -2.03837495234189      -2.07655812801058
C         4.65933713253245      -1.22987596764554       1.09621004904591
C         1.89459531110234       3.53540864862977       0.07504576346151
H        -0.92460145733706       0.52638800589535       1.27548710098185
H         0.34668036878207       0.52094601339318       2.50908268150223
H         0.52289909715151      -2.15377250779645       0.04029490180525
H         1.34209342383900      -1.17543032406891      -1.18328473412684
H         2.03697716257923      -1.66947466925930       1.64873014682197
H         2.43560516699844      -0.01545350904623       2.11695816919840
H         0.16789599727379       1.46114835813827      -0.42232953525922
H         1.82278477977686       1.02091897854303      -0.86554777750517
H        -1.11880024807932      -1.96511599112957       1.47408849925320
H         0.17712495138568      -1.96859285732834       2.68068081134341
H        -1.59142559964159      -0.78459428191015      -0.39796508796283
H        -0.72568709023128       0.04288549659226      -1.69956393675524
H         3.25591129711464      -1.34035252326675      -0.52898740382562
H         3.67345407388857       0.30715623704747      -0.03302120584120
H         0.93205905314911       2.47739332887511       1.67942896727887
H         2.59737189380265       1.97220146308439       1.37076856615930
H        -2.03529478557720      -2.00753097965699       3.76288241740270
H        -1.19980640644646      -0.50008631758262       4.15604995666889
H        -2.49715390311055      -0.50262242790801       2.94684367308674
H        -2.05218420486618      -1.83773058619410      -2.58466679445233
H        -0.32623093349859      -2.15062841378052      -2.82625886654306
H        -1.20339998689972      -2.97431196356619      -1.52534756175586
H         5.51566785245919      -1.27899755306691       0.42449320187863
H         4.90284793036843      -0.57367023110752       1.92948402404356
H         4.45966077972056      -2.22745083882718       1.48519697128441
H         2.25459520265137       4.32730483471664       0.73032884508556
H         2.63989800212955       3.36017248829360      -0.70156481060798
H         0.96854629773131       3.86658421128022      -0.39637881490160
P         3.64918497334796      -0.33465364882547       5.48706502281715
F         4.99334869254005       0.60640027246005       5.79139199887268
F         3.71867370369750       0.12781049553962       3.83567090758273
F         3.50239030835543      -0.81450512392994       7.08056497754267
C         4.85755360129234      -1.83749367965490       5.17011432026748
C         2.60186081644355       1.26811523768942       5.92467188964697
C         2.04113961117363      -1.42269526064471       4.93579211773631
C         6.27989451473642      -1.77492545263437       5.79036418415330
C         2.46007732642790       2.37315821584749       4.84615943290801
C         1.15301918531226      -2.25104599470774       5.89948572631425
F         5.04552049923506      -2.06704586774406       3.85326210622877
F         4.26627935455830      -2.93646841886502       5.67521147183415
F         3.16948550060457       1.85675539668160       6.98796041724179
F         1.34688832752980       0.93969462052351       6.29097025996361
F         2.40626159608827      -2.27841361589870       3.94959702135588
F         1.18636326099170      -0.54885885501694       4.32935769676919
F         6.85990858997486      -2.97651638999679       5.70837755024651
F         6.25137209937366      -1.42425751632093       7.06920108278861
F         7.04812647551531      -0.91451138183380       5.12623665060411
F         1.84935946484869       3.44913044536632       5.34099776150767
F         3.63076002940242       2.75780209190884       4.35483683767346
F         1.70937581693956       1.94373638254018       3.81206176205820
F         0.11742938280024      -2.76046901595999       5.20421493167234
F         0.64758846388701      -1.50663264091769       6.87366143773655
F         1.80810939605541      -3.26705406623265       6.43946691970211
