30
C8H15BF4N2 optimized with ForceField in AMS.
H         0.46103379519597      -0.44280926112058      -4.90555047816597
H        -1.18885974162824      -0.69712232686706      -4.21266192836126
H         0.01584963603672      -2.04322710529957      -4.18110800689019
C        -0.11139384847891      -0.94320294809487      -4.09663427424651
H         2.50746751966880      -0.05872199999199      -0.37838512664153
H         2.42811494536467      -1.16779330516782      -2.81212560376492
H        -1.35656641290622       0.46483818300999      -1.95513171939822
N         0.37734530671504      -0.49014205632928      -2.80142930666646
C        -0.31704434386235       0.17801880126268      -1.86079416185694
N         0.44586155451101       0.43137868784673      -0.78055132873805
C         1.65933507763175      -0.09076837016913      -1.04736890908690
C         1.61754784588549      -0.66175986075655      -2.30375760817481
C         0.03283845395441       1.11023353915627       0.44366567376582
H         0.82411176473735       1.82845347895445       0.75283845269674
H        -0.90029418964425       1.68610583542948       0.25506757313332
C        -0.21746075652541       0.08593770995352       1.55377911111699
H         0.71627530414974      -0.48857566252553       1.74204350102847
H        -1.00692530293196      -0.62346038239068       1.21939334193425
C        -0.66448603350986       0.77676042262206       2.84597213706553
H         0.12211755748522       1.48760975454869       3.18099300215328
H        -1.60054068535830       1.34787681382837       2.66080642604934
C        -0.91813241433993      -0.23840647238256       3.95636855673971
H         0.00954493959036      -0.80810044211611       4.17809782319939
H        -1.72145079111298      -0.94539981410036       3.65755928249763
H        -1.23741723581127       0.29322803385557       4.87755786978897
B         6.15460606835630      -0.44353159931910      -0.64473686053844
F         7.19572693149763      -0.82706318163508       0.24163005869170
F         5.78194353208318      -1.55436055918249      -1.44775689804192
F         6.60704972788059       0.61337463383060      -1.47856491408820
F         5.03434398176546      -0.00494667154964       0.10798890609918
