29
C9H17ClN2 optimized with ADF in AMS.
N         1.05153551729131       0.47287270712740       0.01583767245764
N        -1.00284983312170       0.48436810184454      -0.71967954353108
C         2.16582878440923       0.19658799881259       0.92126056893917
C        -2.40911841784684       0.14037780835441      -0.93282831667472
C        -0.15207765661763      -0.13617100667263       0.12850322763233
C         3.50528599081372       0.19304215417346       0.19718565309039
C        -3.31723390291232       0.49689953475503       0.25519639805900
C         0.89614479270414       1.61940956676245      -0.74527999977753
C        -0.38207947424840       1.62533853344214      -1.20924419076743
C         3.58259791630437      -0.86217771727500      -0.90414284521878
C        -3.57673242333760      -0.68013286439241       1.19236745282621
H         1.96033708292128      -0.78534870937706       1.37235682580287
H         2.10765309276123       0.93250297998157       1.74109540609122
H        -2.45974052278442      -0.93707851681975      -1.16398524772788
H        -2.70664408352246       0.67959153893116      -1.84422424245521
H        -0.31134852438842      -1.11716854149884       0.55168803610386
H         3.71318718828329       1.19620558809325      -0.21589321591029
H         4.28395120633938       0.01331453394089       0.95775889246687
H        -2.83601094203445       1.31203749454859       0.82314485746929
H        -4.27210231209093       0.87531662651124      -0.14936424635089
H         1.70127215807646       2.32731539929196      -0.89056140237592
H        -0.90456724854853       2.32724377844850      -1.84690030362302
H         2.80920466002099      -0.69333838870495      -1.66928061874913
H         3.42966454615745      -1.87142190048111      -0.48884430379775
H         4.56289966624930      -0.84774019444057      -1.40343157059838
H        -2.63708637961263      -1.01158350071935       1.66066530369846
H        -4.05601705027259      -1.51580071311979       0.65504304728840
H        -4.24041424728333      -0.37307157574484       2.01505841335343
Cl       -0.66996586460989       0.55967099922714       2.53837276527886
