44
C12H26BF4N optimized with DFTB in AMS.
N         1.23170805555078      -0.60006546438875      -0.17212954907767
C         2.20415690366692      -0.31800102449989      -1.28877759363106
C         1.92900404293301      -1.60191485014560       0.72386449942331
C         0.94873971549818       0.65136795252549       0.60724371796247
C        -0.01272241185496      -1.19131843403073      -0.76193125241837
C         3.00255986322024      -1.59772609929850      -1.45531552086267
C         3.17616106855594      -2.08066757329836      -0.01880645652547
C         0.33260492177737       1.77285472486032      -0.22346440936290
C        -1.14097432190110      -1.43728262366716       0.23912562484916
C         0.44814096884341       3.08881016291478       0.55674124304336
C        -2.25313895970532      -2.25339254800795      -0.43146065961293
C        -0.18772043161388       4.24385973217589      -0.21234436032356
C        -3.41646195752938      -2.49002954447190       0.52915267555119
H         2.85916688164490       0.49018869576663      -0.96037635972692
H         1.66092009453751      -0.02015194034317      -2.18499524390493
H         1.23996745474763      -2.41800696149449       0.94287526837397
H         2.19927907697300      -1.09868857677623       1.65182494725073
H         0.29883631472816       0.38221918741153       1.44241867947638
H         1.91006309019968       0.98056488740146       1.00571353668224
H        -0.36136684955721      -0.50831740621934      -1.54054132219268
H         0.28097678686993      -2.13181622208336      -1.23576255678768
H         2.46384729012163      -2.32847966069299      -2.06591845778780
H         3.96570753552280      -1.38201673073884      -1.91929633258939
H         4.05857228363924      -1.60765878218928       0.41737694072890
H         3.28172612422243      -3.16447014927035       0.04321732211481
H         0.87010094463345       1.88070276734003      -1.16842050395898
H        -0.71765147300386       1.56124745861625      -0.44978441801924
H        -0.77376229776149      -1.97937030969179       1.11442337541500
H        -1.55475043797525      -0.48518131410887       0.58122147370846
H         1.50803356253149       3.29971466077126       0.72775936757582
H        -0.04063932428800       2.98129002080994       1.53083044750706
H        -2.61236770017524      -1.71833849523993      -1.31668253306824
H        -1.84936936540695      -3.21611478120446      -0.76187425817276
H        -1.24919240407131       4.05631188381810      -0.38363233739019
H         0.30259789942678       4.37500520296321      -1.17770720778061
H        -0.08532159167379       5.16752286210243       0.35692846343946
H        -3.84477516973260      -1.54052914311878       0.85201125120354
H        -3.07948026029599      -3.03740757045387       1.41013593853716
H        -4.19334908635315      -3.07187064592912       0.03380517565888
B         4.45711804157356       1.22452076293903       0.68388785039574
F         5.47198974410033       1.90837010680501       1.28201259177596
F         4.90638733686353       0.39725554886605      -0.36299793276400
F         3.47345752586183       2.10357611524191       0.15095412906284
F         3.77731866885581       0.38347785763437       1.61763868832157
