34
C10H21NO2 optimized with ForceField in AMS.
N         0.44404115708285       0.22521386593779       0.03779224997643
C        -0.49579988413728       1.28844679078317      -0.44191255524787
C        -0.09106497323626      -1.13076378677142      -0.29707868341804
C        -1.95545315031483       1.09807435727980       0.01160138487591
C        -1.53423770658277      -1.35947785731523       0.18529944581371
C         1.74364015890516       0.45053702575830      -0.67758881269403
C        -2.46573170833023      -0.28740952251351      -0.36629504734022
C         0.65996047263914       0.36281144633073       1.50423699852561
C         2.88254757514581      -0.52230533530382      -0.31912651782780
H        -0.50659322639396       1.31991226885917      -1.55654059711167
H        -0.15483159351994       2.29308966705546      -0.10182605895249
H         0.53300981058898      -1.92835977467110       0.16081016821044
H        -0.06940920687972      -1.29243480256613      -1.39932924485446
H        -2.59091355269110       1.86124622200026      -0.48773323597007
H        -2.06052484573919       1.26037025465128       1.10404769574635
H        -1.57921797482813      -1.36852608812888       1.29497496078690
H        -1.88238158468651      -2.35493289956153      -0.16574781780629
H         1.59389624094801       0.38626945222749      -1.77959614152134
H         2.11690531140963       1.48162789395723      -0.47806923674120
H        -3.48670214673606      -0.43302542084344       0.04755541269256
H        -2.52573246919661      -0.37641674026694      -1.47358910626051
H        -0.28990604164514       0.36576417483552       2.07296978279769
H         1.25419993144806      -0.48344571102896       1.90993840981275
H         1.19034032863741       1.31136603634477       1.74362534877185
H         3.77491081192496      -0.26550893090702      -0.92816023123815
H         3.17767025908562      -0.43197735388084       0.74550964845186
H         2.61889580817060      -1.57210839942387      -0.55579010011966
C         2.46107504184938      -2.27997811909105      -3.88403068416258
C         3.20559095987896      -1.36711391668098      -4.80612642609850
O         3.86904393462656      -1.83208379825746      -5.71906581217823
O         3.15252101475440      -0.15757666745297      -4.65090876534482
H         1.72968560137032      -2.88107144223656      -4.46410844411227
H         3.17527985650973      -2.96215762909547      -3.37669686003450
H         1.91309211864214      -1.69773448742379      -3.11404614092735
