65
C19H25F18N2P optimized with ForceField in AMS.
N         1.34225166283108       2.26838824394886       0.03764825213102
N        -0.86181297947271       2.43458486746038      -0.20363293644082
C         2.71998032501810       1.86372340456888      -0.22931901891641
C        -2.19959063705060       2.24331863092450      -0.76219303689201
C         3.00939498551696       0.47177930650233       0.35069072219974
C        -2.44307048189083       0.76662229961549      -1.10992930302663
C         2.09707683118869      -0.60414734268347      -0.25904714184072
C        -2.38045882516973      -0.13338010756676       0.13335306903818
C         0.30810401628966       2.18136072538437      -0.82064041530628
C         0.81177457311059       2.59932636460130       1.23187420099615
C        -0.55554140563456       2.70929665732750       1.08066494953236
C         2.46699831680726      -2.00208907785255       0.24574027820467
C        -2.57435888457556      -1.60661521722459      -0.23952800792879
C         1.51324386304570      -3.05515478324784      -0.31258763579156
C        -2.50496849726923      -2.49908719497162       0.99673359189884
H         3.41590833203844       2.60531986586627       0.21855321194723
H         2.89878861339196       1.84968408384647      -1.32605630480966
H        -2.30201920882304       2.85968732854257      -1.68100074578397
H        -2.97022188269269       2.58566125610528      -0.03704306226197
H         2.87484949166649       0.49573652524474       1.45423931447481
H         4.07141729274276       0.21845262479202       0.13977868137022
H        -3.44639014343575       0.67355924279928      -1.57944385474225
H        -1.68797562071771       0.43267697744709      -1.85483257626827
H         2.18321265713303      -0.57902900343837      -1.36780060992651
H         1.04177741046614      -0.39357668085338       0.01813645201486
H        -3.17197969889755       0.17620293402906       0.85053695322913
H        -1.39277142930027      -0.02015667141703       0.62996421267516
H         0.39736360405509       1.85715518276777      -1.85043779443100
H         1.36917373508582       2.69267084157333       2.15499287496630
H        -1.27680318940171       2.90205891673683       1.86422907381231
H         2.41739174534717      -2.02613922089123       1.35620325443460
H         3.50402143130723      -2.25114121667068      -0.06790302123916
H        -3.56280945512232      -1.74407255181747      -0.72926759485799
H        -1.78061557466329      -1.91912255817336      -0.95289318347195
H         1.54685223226006      -3.05857494689269      -1.42293154325091
H         0.47440544395522      -2.84810692204831       0.01981260243146
H         1.80906467087170      -4.05953132318484       0.05627797752840
H        -3.32408472302198      -2.24371274340382       1.70223388222532
H        -1.52838741680503      -2.37379175095330       1.51144124467367
H        -2.61300365980176      -3.56201336676124       0.69483010040196
P         7.89526521054021       1.77572284577353      -2.81215675991713
F         8.90823022061847       2.62149660415153      -1.70703936916267
F         7.20464051495099       0.36510872717165      -2.10158269310422
F         8.19581440646275       3.25727582460443      -3.63383502340829
C         6.58205116991737       2.52040794564846      -1.59716819580404
C         9.58958991143082       0.84133143369030      -2.80739964260329
C         7.19605598810588       1.40464011696515      -4.57656956605742
C         6.54409989795774       4.06370567102699      -1.42901465708498
C         9.67128773732324      -0.47214056687442      -3.61215431990681
C         5.85247536343372       2.06136161275867      -4.95339545445987
F         6.78962057297616       1.99640391299345      -0.32683138877361
F         5.32374402458255       2.12048496976046      -1.99135994614854
F         9.93366799176803       0.50321456184449      -1.50166036231047
F        10.56818325898674       1.68730287848422      -3.30973213504110
F         6.99437327017664       0.04099910488200      -4.69560489945494
F         8.13053783420993       1.76598042614615      -5.53800656285292
F         5.44489862094968       4.39655444635554      -0.65722326077158
F         6.42301226873414       4.72305829215081      -2.63340287420552
F         7.66914131718316       4.53102258317120      -0.77374129944761
F        10.89093742423193      -1.07361604684976      -3.35353183083513
F         8.67824243421160      -1.35902747954818      -3.24068913579942
F         9.60764024746153      -0.23837016386090      -4.97137765555237
F         4.80319401778356       1.44094839665534      -4.30169946567540
F         5.64355221770252       1.90632963258410      -6.31263753906314
F         5.83885994681776       3.41031064248306      -4.67867203215905
