66
C18H28F18NP optimized with ADF in AMS.
N        -0.60973931850608      -0.76810988122989      -0.25366671812860
C        -1.31200864494388       0.06761684949730       0.80481130378272
C        -1.54803830262528      -1.07223954662767      -1.42367531218970
C        -0.16309054709631      -2.09260814200693       0.36748918706190
C         0.58035363172592       0.01546835330857      -0.77229678030008
C        -2.61189447164153      -0.50003690650558       1.34495689301204
C        -2.15463708456362       0.14348715126170      -2.10726243287718
C         0.85015807463480      -2.88624910232566      -0.44472120472923
C         1.66590830149071       0.34089235264944       0.24303021339029
C        -3.20100989211706       0.46846572900580       2.37113308569600
C        -3.07416849970955      -0.31195984044399      -3.24277565399479
C         1.14982693540741      -4.21204878084291       0.25723409906851
C         2.86418196863832       0.95674845169050      -0.48078516917907
H        -1.47935849992290       1.05713891489638       0.35295082551511
H        -0.58618094182474       0.19065579416538       1.62133585251229
H        -2.33030968773691      -1.73917856620217      -1.03943874298687
H        -0.95459568352827      -1.65903682924905      -2.13867724176787
H        -1.07789549946510      -2.68142784501705       0.51565952052099
H         0.24895819786528      -1.84355809430949       1.35717879431954
H         0.17509968166373       0.94595620656527      -1.19239009215534
H         0.99281432211510      -0.57295245570221      -1.60441335935021
H        -3.33831253873669      -0.66192063904583       0.53496452855230
H        -2.44504701616827      -1.47902053840961       1.81767749480550
H        -2.73927568362863       0.74135963059954      -1.38851990753052
H        -1.37046899820632       0.79878962796861      -2.52064226666413
H         0.46094300040712      -3.10189915831408      -1.45083504181170
H         1.78809668613919      -2.31883836193859      -0.55666024008996
H         1.29116321364494       1.05058882833861       0.99774734477667
H         1.98963010805922      -0.56498049984380       0.77872202231117
H        -4.14014337593577       0.06416974680713       2.77479849210497
H        -2.51259207000886       0.63084006238535       3.21540032980240
H        -3.42220931404984       1.44769228017413       1.91811455369866
H        -3.49222684612252       0.56035358231856      -3.76514054025217
H        -2.52616998625053      -0.92045153055063      -3.97722860737929
H        -3.90166244744848      -0.92565666461451      -2.86444843851896
H         1.93126476962164      -4.75810824029003      -0.29037093540772
H         1.50569923961305      -4.04940772467412       1.28676853191645
H         0.25584321365055      -4.84713603079961       0.29186354086923
H         3.65415092466418       1.22555321269769       0.23479841022257
H         3.29289108205111       0.24996006700398      -1.20795936994159
H         2.57648794999125       1.86963941578059      -1.02476036467687
P        -4.42349078388094      -4.73309852311223      -1.64328110608453
F        -5.95830751734894      -4.19227126822384      -1.32411950372580
F        -4.79976839858063      -6.32709060215137      -1.40383198260190
F        -3.94105202140505      -3.12974325934502      -1.89627673916768
C        -5.08075117056715      -4.91173376030633      -3.49190282146206
C        -4.14603809142141      -4.57336574462082       0.37953145043962
C        -2.46041857170984      -5.20417196272429      -1.92596578762652
C        -5.39887205671282      -3.62857389775310      -4.32044993137764
C        -3.31828535083411      -5.55339503865874       1.28588221046093
C        -1.62420218382207      -5.15726144043850      -3.24580639963070
F        -6.26462688065848      -5.61043638303010      -3.45703213488327
F        -4.22072768561095      -5.65331466438666      -4.27710605014760
F        -5.39276180810342      -4.66229833534155       0.95220664296929
F        -3.65957997732723      -3.30419152873137       0.70942986325667
F        -2.18655763637607      -6.44372140019887      -1.40045619464236
F        -1.78235901468413      -4.27320372716680      -1.12804501307291
F        -6.03459736619603      -3.98172198879212      -5.47404390464204
F        -4.26882143652150      -2.96419521632535      -4.67627535993150
F        -6.20345477615240      -2.76985911400674      -3.65602860571854
F        -3.60246411392932      -5.27051515354915       2.59504852984497
F        -3.64031489200149      -6.83978453105556       1.06144546587844
F        -1.97105622424519      -5.41478352114695       1.16264671167146
F        -1.79429111300091      -6.24481309878868      -4.01652604742540
F        -0.28620578540253      -5.11824047337487      -2.92080991789091
F        -1.87845530325376      -4.03823494194212      -3.96679089599747
