37
C11H23NO2 optimized with ForceField in AMS.
N        -0.05632480461823       0.25690316172205       0.15592564565751
C        -0.98106391349529       1.24721181483318      -0.48392480315881
C        -0.50629617491826      -1.13830355971399      -0.13917670018658
C         1.30050404938193       0.49113381248557      -0.44206449517842
C        -2.47176688031530       1.02370815072528      -0.16520508721660
C        -1.98054665969797      -1.39768631959743       0.21484975547549
C        -2.89000468957434      -0.40409956769340      -0.49770478780098
C         0.00434335597074       0.49511910709696       1.62414296971897
C         2.43868427546201      -0.40570240835544       0.10377274385828
C         3.75960371128639      -0.08904304179438      -0.59283861595420
H        -0.88091546286609       1.20752874525157      -1.59385490634294
H        -0.71239356738618       2.28489474278672      -0.18039459307209
H         0.09492275489551      -1.87828560989253       0.43025050120114
H        -0.36839816354056      -1.36769907330681      -1.22103182719437
H         1.60366407155686       1.55254741785698      -0.28387667559472
H         1.25874860991035       0.34302336534642      -1.54629578104164
H        -3.07942178058388       1.72640913227672      -0.77561796286621
H        -2.69460995697522       1.25161847914675       0.89758605814141
H        -2.13526009963504      -1.33779966482681       1.31317962461304
H        -2.25324675968062      -2.42832523470097      -0.09950266854889
H        -3.94225960832835      -0.56806433706346      -0.17981693383139
H        -2.83231520753268      -0.56551295715405      -1.59711213485816
H         0.56702541888798      -0.30852552848310       2.14491494523646
H         0.48981385460841       1.46997170645327       1.85242211062609
H        -0.99867115105913       0.51102243760773       2.09169301792159
H         2.58596523828796      -0.24065722350134       1.19061945597973
H         2.21755174195130      -1.47672462183404      -0.07334282193316
H         3.67567693424682      -0.27847015933813      -1.68423253153455
H         4.04072676855070       0.97231517498886      -0.42453432115481
H         4.56217631304354      -0.73731715784776      -0.18185176725607
C         2.08587916592693      -6.15718485877613       1.78849908097583
C         1.98230175629972      -4.66516687527108       1.81557492365049
O         2.11311481503606      -4.06362974494647       2.86911732919228
O         1.76748017738172      -4.04579188600048       0.78678003116694
H         3.09389033322798      -6.46735415809132       2.13503222066756
H         1.31728133801677      -6.59658786525331       2.45826527444093
H         1.92644722277745      -6.54230399233563       0.75848045360087
