38
C12H23ClN2 optimized with DFTB in AMS.
N         0.17027264343460       2.25211145208023      -0.02824093786639
N        -1.84618291616239       1.49438820784044       0.03785750341198
C         1.57465806137207       2.41220520544589      -0.38977733455641
C         2.41665721711477       1.30062041312085       0.25029147523791
C        -3.02873732907854       0.68719844650443      -0.24303227218929
C         2.26349766655789      -0.03386762667464      -0.48203051627741
C        -2.89160898424078      -0.70298564366938       0.39142791245192
C        -0.71294712937283       1.48239845563533      -0.66338074852324
C        -0.39149030457615       2.71563643021194       1.12756669607929
C        -1.66307970630240       2.23846092361840       1.16851001443397
C         2.96030417996294      -1.16177385656034       0.28409258875583
C        -1.95638307431057      -1.61627187715683      -0.40424332547542
C         2.80297579386360      -2.49671845005583      -0.44054483333561
C        -1.75406926687497      -2.94716798372011       0.31578701810252
H         1.89427746208267       3.39299803801823      -0.02805546652371
H         1.65143280471963       2.39250765336494      -1.48108474025878
H         3.46255666780819       1.62066591368394       0.23298274985163
H         2.10586145212656       1.18068555812179       1.29129541859771
H        -3.88926267898296       1.21579154799347       0.17523672253915
H        -3.14656226087336       0.61958609849080      -1.32896027989636
H         2.67303286806276       0.05029441046552      -1.49598450629430
H         1.19988407300664      -0.27618688533194      -0.56428744181220
H        -3.89113573642682      -1.14482829885350       0.44268099660803
H        -2.50730826642097      -0.59000742834109       1.40842063136663
H        -0.56066851556724       0.99430223277506      -1.60924374205154
H         0.15543075565252       3.32649040041597       1.82339580545290
H        -2.43285679802506       2.35218234841031       1.91089062249199
H         2.51537686158951      -1.23599472886576       1.28013161028571
H         4.02436158443930      -0.92722976595068       0.39941447274202
H        -2.36784732876409      -1.78444165726833      -1.40673300471657
H        -0.98421935688872      -1.12689284250023      -0.51162054344359
H         3.24735062771831      -2.45169636972980      -1.43683761035892
H         1.74691583307414      -2.75086246533365      -0.54193201818828
H         3.29657888461962      -3.28752345642824       0.12478877699728
H        -1.28800686258197      -2.77285441458025       1.28534780044443
H        -1.10225274787634      -3.59177235059660      -0.27439274046065
H        -2.70740367491706      -3.45614130561242       0.46649948583292
Cl       -0.00433941926250      -0.21023254416792       1.97489003614488
