46
C14H29NO2 optimized with ADF in AMS.
N        -0.94072782595861       0.26729764299904       0.47602887936826
C        -1.34754545120093      -0.20276640881058      -0.89894320825505
C        -2.15311548468163      -0.10127363206565       1.29191558500675
C         0.31146685734542      -0.42689510364601       0.99745404481209
C        -2.83757743024093       0.15466447754073      -1.02036729530432
C        -3.32944098315938       0.35386548610924       0.43850936620733
C        -0.72740239351921       1.78676787435300       0.42543007833296
C         1.40275760601341      -0.59464235588333      -0.04327601544351
C        -0.85461881928422       2.47840576666588       1.76392462150528
C         2.68380578650946      -1.09582054676597       0.62981948629140
C         3.86756167238915      -1.08566150843171      -0.33441604971405
C         5.18171007972854      -1.47918316021890       0.33464218483181
C         6.36302544923994      -1.46335715597183      -0.63188483184277
H        -1.18896260014636      -1.29043562738282      -0.91999097320387
H        -0.69368984452280       0.26901806937375      -1.64255773549681
H        -2.08084612142332       0.34925175371612       2.28836248049328
H        -2.13466504373888      -1.19740859065099       1.39278802075301
H        -0.02156425410598      -1.39426459282007       1.40947173149272
H         0.71652520763941       0.23115164938993       1.78777716721342
H        -3.37644964806991      -0.65708382419696      -1.52912087707823
H        -2.98520706088729       1.06657959795710      -1.61646502717255
H        -3.56119302478757       1.41138673975592       0.63363768825817
H        -4.23176794448432      -0.23062260384924       0.66896355902660
H         0.31206688169106       1.94773293822587       0.04122731937815
H        -1.46107334174203       2.17288026096784      -0.29752586913015
H         1.10318140782674      -1.29224270428174      -0.84603913599493
H         1.62587448654496       0.39805025271073      -0.47566591409705
H        -0.55490484083760       3.52497867300411       1.59978527528849
H        -1.87602194293800       2.47898212646081       2.17670918227815
H        -0.12507564492120       2.07649418829243       2.48246173761050
H         2.53867608821489      -2.11485108696617       1.03914120534616
H         2.90400225939064      -0.41890093293324       1.47375911101925
H         3.96400158540092      -0.06811915060900      -0.75693161231363
H         3.67085335889790      -1.76591920909187      -1.18642394528914
H         5.37694116175650      -0.78517224758013       1.17208704889335
H         5.08059661972984      -2.48553545182288       0.78243197093788
H         6.49825704241990      -0.46023772294911      -1.06797140674865
H         7.30012998466983      -1.74341589499836      -0.12808158650783
H         6.20142608076318      -2.16862600756635      -1.46403034531013
C         3.97034965705607       3.12235654989016       1.14465538205218
C         2.61888495931250       2.41255193799267       0.97960558472430
O         2.15897828562978       1.80483940383731       1.99364786343525
O         2.09509599396995       2.47330622610605      -0.18043362997251
H         4.02361803969882       4.01356591793012       0.50329149058920
H         4.15115518549461       3.39001602716238       2.19479743363580
H         4.77126430311676       2.43534184625170       0.82444978329343
