54
C14H26F6N2O4S2 optimized with ADF in AMS.
N         0.00430667978786      -0.72827629252518       0.95240048458282
C         1.46451276087652      -0.25504147479305       0.85943043970744
C         0.02902943262038      -1.93854556942423       1.90816807560851
C        -0.86457516187537       0.36044926940349       1.55995365401368
C        -0.48951044489107      -1.13429232502997      -0.41985718403205
C         2.29505038846618      -1.34552057305433       1.52085762574978
C         1.36297013141483      -1.84030267610715       2.62522417370370
C        -0.99339167066342       1.61431426469783       0.71772977695024
C        -1.92684290424597      -1.61425543509046      -0.42331266060132
C        -1.71327456911654       2.70248857063547       1.52231051305771
C        -2.33347712003121      -2.21336926381151      -1.76997092187507
C        -1.97348913542160       3.95295799986880       0.68977517583104
C        -3.79516982599775      -2.65637431214708      -1.75553364548186
H         1.53097426278934       0.68150000468379       1.42823650411638
H         1.71072490771549      -0.05718695348377      -0.19148835919887
H        -0.01872014918011      -2.83826078776939       1.27805094624166
H        -0.83949010311307      -1.90264593572571       2.58152438459182
H        -1.84918356621508      -0.08701172287193       1.74711797104073
H        -0.42380206111126       0.57219516176471       2.54494815094593
H        -0.35891141134200      -0.26103721125644      -1.07628251095420
H         0.19698245019481      -1.92585538591502      -0.76368138309441
H         2.51880536402603      -2.15627670011153       0.80688236842793
H         3.25023996497917      -0.94505338904170       1.89063707098989
H         1.28895446834277      -1.11511647697692       3.45190673957097
H         1.65612597689883      -2.81075473946313       3.04983908301143
H        -0.00303906768170       1.99139535986939       0.40311852204657
H        -1.56849117179290       1.40980140621248      -0.20283885094502
H        -2.07556334969075      -2.36959863422396       0.36095054159760
H        -2.60634716980516      -0.78020652185489      -0.18351460926805
H        -1.10810084631753       2.95342029902226       2.41060862825641
H        -2.66116558387224       2.29857886075642       1.91625889448789
H        -2.17334351322252      -1.47388897022011      -2.57565127279881
H        -1.68373108547191      -3.07730599186237      -2.00024418383514
H        -2.61526877402510       3.72604420879853      -0.17724829431701
H        -1.03303746653440       4.38430794373578       0.30928000091777
H        -2.48003950362537       4.72364515967987       1.28869511171432
H        -4.46251179438704      -1.80057410913741      -1.56649155646628
H        -3.97336981231261      -3.39523399654538      -0.95893899526301
H        -4.08473286761037      -3.10836169328422      -2.71500714024238
N        -2.18787337376865      -1.67094846110384       4.44837742659746
S        -1.95443707073543      -0.12825662156492       4.86298768029417
S        -3.65252652170859      -2.36427848074780       4.52504651237572
C        -2.22218664742874       0.00778302230372       6.75224131100636
C        -4.24388683885786      -2.30576788177591       2.72923556455744
O        -0.51030689754690       0.10131040492118       4.70668488420694
O        -2.87519382804657       0.84825834488880       4.28319683507890
O        -4.65354771533177      -1.61061025827475       5.26581011324383
O        -3.46776785179706      -3.79182767060525       4.73252567797837
F        -1.34904803240281       0.92925357141491       7.23012343364686
F        -1.98388014338130      -1.17222792628207       7.36439244054429
F        -3.47075517659860       0.41209058828574       7.04071631177305
F        -5.51886677875460      -2.74173358652273       2.64748095012809
F        -3.47126871027954      -3.12342283944887       1.95115193812151
F        -4.18516186111972      -1.05559031509018       2.19391306775824
