37
C9H17F2N3O4S2 optimized with ForceField in AMS.
N         1.01872346958238       0.32918534960882       0.38765923057045
N        -1.03232979852044       0.31992890535307      -0.47026797229842
C         2.27870100210922      -0.13475342604516       0.96542706041926
C        -2.30215450949277      -0.15658925169620      -1.01426573985560
C        -0.01647409488938      -0.43537789042175      -0.01002558751144
C         3.44694926812006       0.09148072011610      -0.00064418343010
C        -3.45087619810881       0.09100697060093      -0.03020381570390
C         0.64602366534795       1.60701509144898       0.17160977272191
C        -0.62698148781402       1.60114769854966      -0.36155256527932
C         3.30348878026456      -0.73788277239105      -1.27592406644170
C        -3.29216248802057      -0.72643381738524       1.25120104620003
H         2.20939902469344      -1.21570122655238       1.21824260374473
H         2.47147377109879       0.41629668644073       1.91063566826523
H        -2.23638146636092      -1.24264083078320      -1.24521397698346
H        -2.51232309387939       0.37383203483198      -1.96823437221208
H        -0.03084698992495      -1.51711309491842       0.03533586480828
H         3.51752383363467       1.16864222433427      -0.26447794398593
H         4.39126447089320      -0.19779806997491       0.50872293853324
H        -3.50645275615090       1.17153090495321       0.22358900206412
H        -4.40668067625571      -0.19528850262768      -0.51946170634286
H         1.25220650813402       2.47698206812557       0.38821810820500
H        -1.20919804795011       2.46470463615993      -0.65567335931820
H         2.42153935899311      -0.40127635633106      -1.86075354175050
H         3.19003864132156      -1.81472609931123      -1.02816912547695
H         4.21061013283496      -0.61313170249645      -1.90370717133805
H        -2.40255502281419      -0.38519817269570       1.82152076987708
H        -3.18312877640874      -1.80591471275170       1.01267562140269
H        -4.19099697953539      -0.59496988356412       1.88938494146425
N        -1.18986292328759       3.39326425339581       4.10199729683558
S        -2.08905506798708       4.53945159941305       4.84746928967326
S         0.42798843176397       3.30638164368390       4.33043313919498
F        -1.77776379390940       6.03008235761007       4.15188213376910
F         0.74470556538534       2.85719938599373       5.91185865061610
O        -3.54725041296888       4.21463550255987       4.69400967736781
O        -1.73315263820931       4.60152233437341       6.30611691211143
O         1.05144331130900       4.64928858732627       4.07407656922860
O         1.01515550870235       2.28792857006691       3.39677885905537
