37
C9H20F6NP optimized with ADF in AMS.
N        -0.53717126860299       0.52759480047564       0.02499464780544
C        -1.36096737947097      -0.28675631848570      -0.99820424263994
C        -1.46410155025592       0.70603600398542       1.23432216840346
C        -2.74681233409088      -0.46064949295338      -0.38829010865660
C        -2.49260160884677      -0.40622770106509       1.11942630737243
C         0.68549071870191      -0.25441638998477       0.44621370557285
C        -0.16002825711524       1.87723590247800      -0.56271645900654
C         1.70874438138336      -0.48074130785047      -0.65677207607514
C         0.61286826404508       2.76933928581264       0.38442836175888
C         2.78217709445141      -1.46439671999486      -0.19436917932876
H        -0.84613661133252      -1.24896618810631      -1.12008979330780
H        -1.37869764229685       0.26414248044216      -1.94524599843953
H        -1.95400655555235       1.67885699177156       1.10228681096295
H        -0.85907492960203       0.69344430266307       2.14952305331496
H        -3.20500576812832      -1.40474974986659      -0.71667537128339
H        -3.39308549829743       0.37364636672126      -0.69452639146676
H        -3.39926483321067      -0.14914926635707       1.68645226720623
H        -2.10346389812577      -1.36336089035354       1.50633062533194
H         0.31125792566234      -1.21418346508368       0.83663018827269
H         1.14303697445983       0.29321582296183       1.28312992348586
H         0.41148663151131       1.66963317797154      -1.47747122488373
H        -1.10449527978555       2.34647033384459      -0.85887257394705
H         1.22053044683091      -0.86700548015475      -1.56610817377903
H         2.18234761283462       0.47481376476062      -0.93109776430868
H         0.07392308812235       2.94438476880915       1.32647701757063
H         1.62356009791637       2.39777204934929       0.60952466782494
H         0.71549625623065       3.74823394783405      -0.10846535329173
H         3.29705467815748      -1.10072095248911       0.70782263636484
H         2.34760491297649      -2.44916020449238       0.03572788721333
H         3.53838061669356      -1.60415517407293      -0.97988870263806
P        -3.61175840960502       3.29309640547683      -1.79171360237116
F        -3.91819269491763       3.85639430358704      -3.29299934782699
F        -4.93309836063598       2.31070555168376      -1.83012925593432
F        -2.69777136422856       2.03583616461906      -2.44957412793522
F        -3.25106782104765       2.67912660112826      -0.24808599957744
F        -2.21556119944155       4.19267198152253      -1.69754128621972
F        -4.46861221338703       4.49810036731230      -1.09563994334385
