46
C12H19F6N3O4S2 optimized with ADF in AMS.
N         3.14271694907939       0.66960603526168       1.15736901855859
N         3.42240798789789       2.74399040598632       1.72524169127495
C         1.49448366585096      -0.95180835733643       0.27733514946142
C         0.57862996106248       0.09089425585068      -0.36005657277917
C         2.95925255002990      -0.52843621811260       0.33378353516440
C        -0.87495179397873      -0.37006433769426      -0.45729332461830
C        -1.78828389866437       0.66059408034173      -1.11970323372121
C         3.27254610980712       1.91306618026791       0.68424537096430
C         3.23213964535363       0.70044558144553       2.53331028350159
C        -3.23959941676668       0.19368116419186      -1.20372577451058
C         3.41082294868018       2.00305968821484       2.89191582221552
C         3.74788744613830       4.16369293938636       1.61894732392825
H         1.14079811338416      -1.18872840729221       1.29765196534990
H         1.44831063979167      -1.89415519467430      -0.29590312420593
H         0.95296787922166       0.33458567977312      -1.37233758749216
H         0.61714560739244       1.02837775383309       0.22479784615123
H         3.35731671216517      -0.28320776893524      -0.66215973957737
H         3.61366874462964      -1.30339168889574       0.75650601807926
H        -0.92164420745568      -1.31648776343641      -1.02753244158391
H        -1.25587800817768      -0.59835892012715       0.55594340039004
H        -1.73469569460920       1.60994855865197      -0.55609427997333
H        -1.40958112820678       0.88020086035261      -2.13450118146367
H         3.31951327451353       2.21232902405583      -0.35729605185124
H         3.19497757492897      -0.20267895029991       3.12853200635120
H         3.56156464226138       2.46187539106215       3.86078605246871
H        -3.64980351347206      -0.00056541809689      -0.19992378575451
H        -3.87833746308500       0.94770130576410      -1.68909449071128
H        -3.31965522460924      -0.73912207869337      -1.78420633368360
H         4.82541886775174       4.29724981933959       1.78589301873526
H         3.50807460887160       4.50260843229676       0.60562728082221
H         3.16193753276905       4.72167188319768       2.35958852119177
N         5.81402926500905       1.53978098380918      -0.22055453039632
S         6.86176024345578       0.56196476346451       0.52100041647661
S         6.13365065171533       2.97319942352088      -0.86712473953438
C         7.47533410307023       1.44904767891998       2.08667713128976
C         7.17562484598095       2.72232627321629      -2.43220432439589
O         6.05307654394983      -0.53070558656052       1.05969386703261
O         8.07913030470422       0.28920278093408      -0.22699084823900
O         6.93155093310445       3.87042593534746      -0.03671833891945
O         4.84508353191069       3.44975230933678      -1.39166552069682
F         7.91097642500073       0.51284231518381       2.96507632263599
F         6.46477578753338       2.14523148493427       2.68614081740749
F         8.48663132623056       2.29403382210086       1.82652431982564
F         7.05548450342989       3.83427151950001      -3.19856674906486
F         6.72895320895717       1.65900799476104      -3.13907614802712
F         8.47398161639231       2.54334331335207      -2.13273991807663
