39
C11H14F6N2O4S2 optimized with DFTB in AMS.
N         0.11181308718982      -0.61505653905171      -0.86458203386953
C        -2.04594422738691       0.47166857898140      -0.41803931826917
C        -1.00319551161281      -0.53047201296612       0.08853038819445
C        -3.22389280708037       0.56992286938246       0.55297676697918
C        -4.27566065776156       1.53599944420336       0.00922559701218
C         1.02773681491748       0.37046689374602      -0.88120699894923
C         0.14626319650164      -1.60645017302291      -1.76573618914415
C         2.04491215255534       0.36526563162486      -1.80792388812250
C         1.15294469238052      -1.65712874888993      -2.71444065953103
C         2.11153258422866      -0.65994013325208      -2.74723187011357
H        -2.40461784841349       0.14857226864428      -1.39660821352660
H        -1.57591035587758       1.45113834915045      -0.53963839999459
H        -1.43974606099618      -1.52693951429135       0.18810161270075
H        -0.59744769287475      -0.22008974455647       1.05569213249547
H        -3.66936761852469      -0.42197381049861       0.68547697266792
H        -2.87071481088506       0.91359725619462       1.53205239544104
H        -5.11839554622845       1.59272396282923       0.69796024326174
H        -3.85018893331170       2.53243894573720      -0.11031044745892
H        -4.63369613530778       1.19575084450274      -0.96176868775098
H         0.91967587891528       1.15308432908304      -0.14031198943006
H        -0.62498667204453      -2.36228924633572      -1.69996683762497
H         2.76706651302911       1.17134651213347      -1.80717574266355
H         1.14865180879334      -2.45880383454705      -3.44150139513880
H         2.89549582963622      -0.66995969743924      -3.49427688861481
N        -2.10393404112201       0.84006136209192      -5.17176363465084
S        -2.49968132091021       2.02806915806028      -4.16801427073710
S        -2.12047746831619      -0.63845630970234      -4.57200906644357
C        -0.86169964815046       2.59925808427284      -3.43866827335038
C        -3.92006104017532      -1.16076552490304      -4.36606266530791
O        -2.93099754740544       3.15241278178193      -4.94624463624714
O        -3.27731696857116       1.64188197649012      -3.01136327044463
O        -1.58550559792871      -0.78283614089713      -3.21626895157727
O        -1.57799015267560      -1.52291160415750      -5.56886902978758
F        -1.05735887786240       3.16864824647714      -2.25158080740751
F        -0.25703314194148       3.46677966081906      -4.22977982859902
F        -0.03310659999150       1.56713913922704      -3.24864164635803
F        -4.24860322523510      -1.15166902573157      -3.08269718205594
F        -4.06907496329638      -2.39307626614533      -4.82797750200418
F        -4.72578035845959      -0.35262498094535      -5.02778001047915
