36
C10H23NO2 optimized with DFTB in AMS.
N         0.04849171180935      -0.13329166647577      -0.13356929786218
C        -0.92312652463983      -0.18727370149420       1.01754318980423
C        -0.67701660849223      -0.17616811498344      -1.45468151877573
C         0.94967648850937      -1.34530028943710      -0.05221916034246
C         0.82840559518254       1.14552928934243      -0.04611234329923
C        -1.94322629746822      -1.31464405478323       0.95225740865734
C        -1.64520823929994       0.96840020319380      -1.69922392533655
C         2.14437277931854      -1.33277806197995      -0.99112322536409
C         1.71234769872914       1.28062405835620       1.18640036761681
H        -0.32719837426236      -0.29260679067823       1.92723572461353
H        -1.43444971806094       0.77853458390115       1.05401897716193
H         0.08161092557551      -0.19904334233529      -2.23715563996110
H        -1.20039361031773      -1.13472141358192      -1.48254621156230
H         1.28056597411553      -1.42959065603924       0.98610370691207
H         0.31482472446201      -2.20342717034143      -0.30224350816402
H         1.43546658020252       1.21250515955430      -0.95145701024027
H         0.10612173820937       1.96477086171019      -0.05554697563177
H        -2.49646850022067      -1.31112057641855       1.89189242460433
H        -2.64866463590533      -1.17485719507084       0.13648087715324
H        -1.47049984583458      -2.28534744878996       0.82505937797793
H        -2.14983004979447       0.75974686303101      -2.64269625618662
H        -2.40353828911122       1.04199346468244      -0.92098559583217
H        -1.13995174619142       1.92946264382372      -1.79409181379559
H         2.69136317732568      -2.25916336609433      -0.81503031873618
H         1.82048522859645      -1.33398880706469      -2.03031987263387
H         2.82123672904026      -0.49761997209185      -0.81406057945989
H         2.24185102532648       2.23044388406176       1.10923942506161
H         1.12589587331031       1.29266432398258       2.10360285145591
H         2.45080175797545       0.48439326630540       1.24956242943972
C        -0.80057144798044      -4.67374728498381      -3.08445380435102
C        -0.58151308674016      -3.32419896962323      -2.36251389510613
O         0.13936391429255      -2.48475320470373      -2.93479135976068
O        -1.13912585054255      -3.19113850002176      -1.24409143954127
H        -0.78922918854973      -4.52551082382269      -4.16265355967858
H         0.01654846069064      -5.34146015203880      -2.81135226893457
H        -1.74343022345990      -5.11830720719089      -2.77193430420235
