47
C13H25F6N2P optimized with ForceField in AMS.
N         1.36732205715817       2.27648529359150       0.04253742280829
N        -0.83617401361412       2.43692318922483      -0.21631216937929
C         2.74704699150938       1.86216356333825      -0.20618753795791
C        -2.17045725149831       2.24117767281215      -0.78298383888976
C         3.01431378738049       0.46062258243305       0.36467993877976
C        -2.41272619035124       0.76225504198415      -1.12405837385705
C         2.07970208169059      -0.59570270467909      -0.24556743589410
C        -2.35361959774461      -0.13104574503084       0.12430030855603
C         0.33980259420074       2.18653105217299      -0.82420078736809
C         0.82540320242288       2.60284242029727       1.23300359333180
C        -0.54070021167495       2.71035519950893       1.07084916899237
C         2.42014714827618      -2.00301896513226       0.25403916106724
C        -2.55779013444017      -1.60537103842015      -0.23914884025121
C         1.42883628759290      -3.02872481610637      -0.29082879412718
C        -2.48422339494416      -2.49147967930193       1.00216549222104
H         3.44038541024454       2.59296831827677       0.26363307534817
H         2.95078710776011       1.86174371887588      -1.29960386054637
H        -2.26824036455526       2.85355842218970      -1.70504926655052
H        -2.94617091763576       2.58671887772152      -0.06445310630289
H         2.88458199459633       0.48078998860706       1.46872445875186
H         4.07062525534086       0.18908013932397       0.14838543291242
H        -3.41477310665316       0.66661312934776      -1.59575245729002
H        -1.65572671303962       0.42448298439975      -1.86490997423542
H         2.16091133850611      -0.56774752832357      -1.35460960845962
H         1.03114480705037      -0.36457744144617       0.03805109889772
H        -3.14117487300325       0.18779197158269       0.84193835166376
H        -1.36409826553401      -0.02039421200640       0.61697145255838
H         0.43749646350587       1.85888230852528      -1.85187753521626
H         1.37295759264897       2.69083285641278       2.16228149451108
H        -1.26805979148224       2.89745217390882       1.84994090299326
H         2.38548669921980      -2.02541460217908       1.36497475110461
H         3.44591616199816      -2.27919106980588      -0.07330342371310
H        -3.55035011001204      -1.74025989602312      -0.72141813142367
H        -1.77239060850343      -1.92487715919297      -0.95822239012625
H         1.47639069179289      -3.06213782809896      -1.40002556457324
H         0.39668004997774      -2.76848691487154       0.02041573631444
H         1.67076641362331      -4.03501078955217       0.10968405052209
H        -3.30872548092943      -2.24130563675800       1.70267537479907
H        -1.51256528479494      -2.35317209278989       1.52267367275946
H        -2.57875543271527      -3.55733024344614       0.70599184638986
P         3.92960290258548      -6.62583525646772      -1.34762279637368
F         3.91012613823091      -4.92793473070840      -1.09367556571167
F         4.05713018291507      -6.33468059296019      -3.03585668148772
F         5.63204359006817      -6.56407048725658      -1.12647063756288
F         4.08870327453001      -8.30871843753222      -1.65414750584023
F         3.69836152597237      -6.91373368958115       0.33031120519303
F         2.22038456322760      -6.68383641956431      -1.51313076263763
