36
C10H17F3N2O3S optimized with ForceField in AMS.
N        -0.02106238373244      -1.33629425974609       0.34321112756118
N        -2.03813464930099      -0.40818326285562       0.22569543625200
C         1.33394451315517      -1.64170187040448       0.79890605416955
C         2.37428972770139      -0.86367829751135      -0.01619091600960
C         2.19680430421702       0.65410582014594       0.13229313432844
C        -0.92698173020947      -0.56151525678667       0.97162558421255
C        -0.57883595159700      -1.68748738938718      -0.83325255412721
C        -1.83065548321973      -1.11111990976718      -0.90625612618586
C        -3.19919531474441       0.41824941386024       0.54457198955954
C         3.28770107579407       1.41442165463710      -0.61338632757006
C        -3.15603856499110       1.71975549376039      -0.24770166492833
H         1.44274909998429      -1.38602199766111       1.87606448652881
H         1.51956632403384      -2.73247279237172       0.69348940640771
H         2.29620601557515      -1.15011519982842      -1.08774663503485
H         3.38528302945603      -1.15049414088988       0.34182444997525
H         1.21107884296578       0.96153447167078      -0.27900240087969
H         2.23325777530126       0.93367263059389       1.20776263871225
H        -0.76088810599492      -0.08003230069093       1.92767051410666
H        -0.10265315357566      -2.29640641135195      -1.59084348711478
H        -4.13081269531831      -0.13841036429740       0.30542039584860
H        -3.20874521162289       0.65743866585678       1.63034799260037
H        -2.52827188681290      -1.18363715589609      -1.73058183549058
H         3.26448985156917       1.15971586326389      -1.69443961731853
H         4.28603139221262       1.16425910078086      -0.19600423055144
H         3.11863626732154       2.50634140470312      -0.50266054620818
H        -2.23191088005564       2.28414372236577       0.00086127423682
H        -4.03728082137090       2.34396697225538       0.01004453229338
H        -3.17221112083678       1.50786600138074      -1.33759735937480
S         5.51369439932015      -0.33944877602406       3.54609093163166
O         4.01771583549283      -0.35816664848238       3.89429376716808
O         6.17804772517419       0.01567961412290       4.88491639363143
O         5.66556927063218       0.95255822113467       2.72932207620053
C         6.14577696931085      -1.84418094661769       2.74667992386135
F         5.48353970901619      -2.04886769542844       1.55255409394826
F         5.94001478692567      -2.93005075466146       3.57577543122061
F         7.49811495182375      -1.70453199917233       2.50085982513887
