76
C22H34F18NP optimized with DFTB in AMS.
N         0.48295844714955       1.75113141974332       1.54282738022770
C         0.73640004262377       2.81030136671741       0.49633707733344
C         0.40058832380773       2.50412328848682       2.84227429942718
C        -0.83636525142637       1.08100771394810       1.28934624700431
C         1.62340014812958       0.77344471636612       1.57006116589070
C         0.30541956354022       4.15084250970028       1.09428145090169
C        -0.24036759065497       3.83499771313240       2.48788431755457
C        -0.86160476665468       0.16075111182109       0.06959886027407
C         1.48182625760167      -0.31462784604448       2.63007590264092
C        -2.30381217339765      -0.28209493530884      -0.20569837450645
C         2.74920687119313      -1.17886506652987       2.63295959704752
C        -2.36476234744722      -1.23282077007922      -1.40511459025192
C         2.66903995983075      -2.27133634478900       3.70231746272225
C        -3.80343632742639      -1.67812311985709      -1.68599339030019
C         3.94865079329740      -3.11357160442815       3.72164530701924
C        -3.86720390464441      -2.62645984316022      -2.88173788488685
C         3.88363679649157      -4.19968520647742       4.79383535607803
H         1.79914376416136       2.81047024805032       0.26328646553684
H         0.18075082348122       2.55702168215999      -0.40600631902282
H        -0.16917482879259       1.92510349663879       3.56844136955008
H         1.41807303689982       2.64918089945177       3.20552468007147
H        -1.09284516032827       0.50935509383125       2.18441730142127
H        -1.57366508163161       1.87883194776644       1.16941638607723
H         1.70689496538842       0.33857157480545       0.57223931095070
H         2.52558051969501       1.35338006391005       1.76545798236163
H         1.17180584876252       4.81068778117554       1.16799010162330
H        -0.44790834434301       4.63602438064291       0.47185515359410
H        -1.33044474558052       3.75354840571608       2.47589641828067
H         0.04300086956861       4.59854003320248       3.21274216369484
H        -0.46738572423873       0.67269749136088      -0.81190215403140
H        -0.24546016876424      -0.72354976342902       0.24975938889928
H         1.35321429074679       0.13829962996006       3.61687039913376
H         0.61113892557224      -0.94607585020758       2.42989893836557
H        -2.70541676364770      -0.78312599952428       0.68150590745723
H        -2.92405140807773       0.59878054414484      -0.40275163537361
H         3.61751727517785      -0.54303391586186       2.82562174701051
H         2.87918056853545      -1.63556829423188       1.64630514071242
H        -1.95756096593496      -0.72926898523648      -2.28833371363407
H        -1.74170378150803      -2.11085173009579      -1.20416290544447
H         2.52167290351840      -1.80800755416194       4.68387351949099
H         1.80563745245483      -2.91663832657355       3.50431692841504
H        -4.42390107198738      -0.79776617467068      -1.88471196432859
H        -4.20794915625030      -2.17952815388447      -0.80027133034412
H         4.09339478446897      -3.57744279497368       2.74017635177630
H         4.80737032166485      -2.46249319932056       3.91408312208643
H        -3.48658620284375      -2.13658382035070      -3.77886439709234
H        -4.89851410069272      -2.92957051778925      -3.06208047534828
H        -3.26988913005112      -3.51953211191216      -2.69367050639200
H         3.04320259090667      -4.87069333372772       4.60964905090863
H         4.80330440695447      -4.78479751443284       4.78770116141825
H         3.76181208729125      -3.75417629188822       5.78213241108901
P         4.68082383987468       4.00923463033758       1.87489398555327
F         4.02365128644383       5.32212570024774       1.05979970366739
F         3.06786503589813       3.41209888705670       2.08380227237662
F         6.23852387972604       4.55557242295249       1.67359759551533
C         4.78420122049385       3.10942748392232       0.12770690287387
C         4.49788586867786       5.11822062543834       3.48270941070319
C         5.25446801508358       2.36215151139674       2.86007441508055
C         4.63136251862004       3.97087796802775      -1.15355022844551
C         3.07620348764946       5.31188884171264       4.07488414900705
C         6.73156867066475       2.08590583102775       3.24704772183496
F         3.82043897749766       2.15548744673882      -0.00583468223107
F         5.96309121468090       2.47673265359329       0.04535620847105
F         4.94778264109083       6.34768837729376       3.18858553686340
F         5.26689408335919       4.64935977900839       4.48069365084930
F         4.86442561188395       1.28341208162614       2.13439890592082
F         4.52967450662374       2.30686513389096       3.99870518871838
F         4.92432523958440       3.23840132269064      -2.23178373174675
F         5.41295111260276       5.03777329122798      -1.15957280491171
F         3.35789311274530       4.36514996588616      -1.28078393465544
F         2.21838866661762       5.76389248668873       3.15442110069833
F         2.57440542629140       4.16830030725346       4.55542703282667
F         3.09243327279190       6.19013617218620       5.07390691839976
F         6.80401096317161       0.96863184879556       3.97878641984189
F         7.25483987540780       3.07513470031252       3.95940581233605
F         7.47849428842896       1.90986930290214       2.16246825706255
