58
C16H22F18NP optimized with DFTB in AMS.
N         0.41373227042513      -0.03659272801361       1.09359471509853
C        -0.29516759291740       1.05478380458571       1.85232587698493
C        -0.46867572851744      -0.52807125596279      -0.01112227872633
C         1.65671496470396       0.58916129544327       0.51358292866298
C        -1.66370861960407       0.63858070036521       2.36996941055031
C        -1.82870462500865      -0.99797658175277       0.49325893623572
C        -2.54909730981061       0.12521844945249       1.23756501866918
C         0.79569568297256      -1.14826847667313       2.00835894131548
C         2.57699860603131      -0.36524711124734      -0.24061714422296
C         3.80068342338128       0.41812027828887      -0.73627021403785
C         4.76999221114966      -0.49292289925444      -1.48573730150244
H        -0.39289048502036       1.90056432316979       1.16688750905701
H         0.34943035427062       1.34253238475785       2.68105344874861
H         0.05080011280636      -1.34468738644512      -0.51629085062675
H        -0.59460464363995       0.30095384237898      -0.71338324125086
H         2.19588674495169       1.03097794912132       1.35212753943325
H         1.32667185292425       1.39306259644084      -0.14927627199409
H        -2.11514522998696       1.52196435744154       2.82812620292758
H        -1.56628921088288      -0.12081326214875       3.14887143442535
H        -1.71199027468988      -1.86852730677660       1.14413226879864
H        -2.41344778685163      -1.30769190330243      -0.37688146132745
H        -3.49269296654282      -0.24767011787294       1.64185945154718
H        -2.77336681957168       0.94023670598795       0.54172464573762
H        -0.06267044807220      -1.44453976905564       2.60356670804256
H         1.14051903986742      -1.99509932385112       1.41965772686306
H         1.58711846947877      -0.80036546690997       2.66757638872480
H         2.06160422877157      -0.81193242843987      -1.09606623613034
H         2.91407306046507      -1.17196566999611       0.41480307207415
H         4.31021944897884       0.86923749415351       0.12055473896972
H         3.47103541600004       1.22684645350544      -1.39647190830325
H         4.28387448812970      -0.93963132507704      -2.35403635003391
H         5.12367182637815      -1.29266061386186      -0.83416661733272
H         5.62939892853681       0.08402655093672      -1.82580999786754
P         2.28331164184566       1.78715473170980       4.98423848880809
F         2.37246126476679       1.03046535323104       3.43232623675880
F         3.75812296114005       1.15235246060566       5.42001404018142
F         0.76868407919683       2.42626274205103       4.53058517676974
C         3.21501910394155       3.23393653328054       4.03549897435639
C         1.42381838376770       0.03359947944173       5.42260206539686
C         2.03201151010037       2.62265012242051       6.77338468099008
C         2.45625033439884       4.03090709207132       2.93772413480877
C         1.01587489328418      -0.53830776247877       6.81451330285789
C         1.92356072110001       4.15312539312896       7.04271934679133
F         4.28133323885056       2.70236126510852       3.40885632775395
F         3.68772083318613       4.13665869614971       4.91257469409705
F         2.26322222331561      -0.89352336533956       4.91427126971320
F         0.28983963906857      -0.05366558112346       4.67354101340317
F         2.95297144886099       2.15187578609259       7.62794084714080
F         0.83612617410213       2.11753641529280       7.15582144797734
F         3.29803417857051       4.82422561304614       2.27625352914363
F         1.48025932976724       4.78212220792151       3.42284954777499
F         1.91023627795432       3.19910699166709       2.02798123888885
F         0.95632707087909      -1.87327491842893       6.72392662306996
F         1.88782491532415      -0.24061945801031       7.76668921867661
F        -0.19154877759032      -0.12189237037475       7.18070395692065
F         3.11043222809224       4.68729624659932       7.30076710830132
F         1.14203205891598       4.37423197784410       8.09967154678290
F         1.38458101815412       4.79008815220534       6.00428984122600
