30
C8H20ClN optimized with ADF in AMS.
N         0.04554040443709      -0.00272807245308       0.01132521968558
C        -0.76560578989620      -0.21755091438040       1.28806919054154
C        -0.86656483237737       0.25290220708324      -1.17878923286597
C         0.85810014540042      -1.25281856631125      -0.26285931637714
C         0.93842026952941       1.21935318199386       0.20741356433930
C        -1.88166234579787      -1.23384971470887       1.17158787902520
C        -1.82895637979351       1.41213200870722      -1.03269114482531
C         1.85309040041293      -1.15659149771717      -1.40291932947835
C         1.94662919091052       1.08945460601358       1.32874963167562
H        -0.03295905325471      -0.54288898837501       2.03986349337129
H        -1.13043930092305       0.79690714703051       1.58990292860083
H        -0.19596874612614       0.42075499368486      -2.03343514669070
H        -1.40171311257722      -0.69318597264755      -1.35185672488713
H         1.37418644054831      -1.49051673358296       0.67756620719561
H         0.13044585316285      -2.05343574738605      -0.45455910340748
H         1.41778761898551       1.40240396568674      -0.76523193520557
H         0.24456041246246       2.04912193412910       0.48030536575305
H        -2.32468613762962      -1.33871736502340       2.17380779559694
H        -2.68760467190398      -0.90134243609994       0.50286361434698
H        -1.54619925089213      -2.23558714461232       0.86118796047099
H        -2.46750131225763       1.42266523276410      -1.92997576211920
H        -2.46394754853151       1.33821667463983      -0.14060174506138
H        -1.31846730737111       2.38006260214639      -0.94769797834790
H         2.35601530092632      -2.13116760338315      -1.49613058611651
H         1.37365590944681      -0.94470305779191      -2.36804587816641
H         2.62699923235704      -0.40080037019452      -1.21545010641089
H         2.55445848464129       2.00667988154720       1.32011873619627
H         1.44054111594984       1.07095698540598       2.30408685430947
H         2.63160768390959       0.23280143549574       1.23550069718806
Cl       -1.22888163644835       2.98515720373926       1.88430200436319
