66
C18H34F6N2O4S2 optimized with ForceField in AMS.
N        -0.01508372319127       1.98812480143912      -0.00206426697324
C        -0.68559984589399       2.89243786513244      -0.98648784400151
C         0.63591717243805       2.90506296605316       0.98378025988055
C        -1.03329706561493       1.14607845781260       0.70651323533138
C         1.02046823044582       1.16849296211996      -0.71194556235985
C        -0.20685111909399       4.30818875006281      -0.73160889697089
C         0.12301472426293       4.30968855614493       0.73416226504104
C        -1.77906568349203       0.13427765002695      -0.19562618014495
C         1.78884628949627       0.17359324941123       0.18939944083357
C        -2.87367360670512      -0.58793373359952       0.60041005933905
C         2.89602288925255      -0.52991286557969      -0.60684564773293
C        -3.62737048253161      -1.59549900206590      -0.27589030493675
C         3.66279456217748      -1.52360393961894       0.27340255199095
C        -4.69068587222012      -2.34443417100897       0.53655140073637
C         4.73576456607178      -2.26780923258863      -0.53036524974103
C        -5.44462025156550      -3.34771896513447      -0.33199740304172
C         5.47950873574527      -3.26909067498587       0.34969102469714
H        -0.48904478872036       2.61412245715151      -2.04754668975017
H        -1.79310297584483       2.90086174539425      -0.86569600939239
H         0.44843339556908       2.61903078111518       2.04447689492799
H         1.74258609479672       2.94017398868506       0.86034494292517
H        -0.56192116358209       0.58537614625403       1.54363891641369
H        -1.79012904816366       1.80805466592642       1.18901571359763
H         0.55995699446787       0.59735753962095      -1.54803091390012
H         1.76241671939934       1.84641103292261      -1.19517303914945
H         0.71184658868175       4.51004732505406      -1.32629885902537
H        -0.98741478454764       5.06034414084826      -0.97866981350048
H        -0.80022316755039       4.48722880143593       1.32961776898828
H         0.88515944466040       5.07967156074671       0.98382980423572
H        -2.24339887697955       0.65049270786724      -1.06208220511020
H        -1.07148810359599      -0.62926849002890      -0.58009542548578
H         2.24500298296492       0.70053812400407       1.05376018458401
H         1.09698060894250      -0.60240127566093       0.57763419490540
H        -2.40648624955504      -1.12211804971011       1.45718752250961
H        -3.59357954554837       0.16011780795382       1.00005323025334
H         3.60438834206218       0.22904631635870      -1.00644389480403
H         2.43808775467013      -1.07283391536386      -1.46316521585506
H        -4.11797823224410      -1.05538237109623      -1.11554865303377
H        -2.90547571443928      -2.32853841584434      -0.69881463904072
H         4.14636800616908      -0.97370233104723       1.11069100671777
H         2.94818435457711      -2.26201959961666       0.69959122827865
H        -5.41797424857750      -1.61884713358158       0.96204954928477
H        -4.20579632092109      -2.88967843088866       1.37573301884919
H         4.26053072929741      -2.81490793074718      -1.37387414797085
H         5.46612956630975      -1.54082728841888      -0.94893683852969
H        -5.96573766529659      -2.82493142624432      -1.16202589924641
H        -6.20160964614368      -3.87823073318618       0.28337777979427
H        -4.74243277966084      -4.09800519177383      -0.75386273327735
H         4.76791909046593      -3.99655855399969       0.79490656107627
H         6.21547694568845      -3.83190695056682      -0.26002446116061
H         6.02083331974806      -2.73917518561709       1.16205241483021
N         8.94169381109928      -0.07945987473635      -2.24711911655456
S         8.72192921292813       0.33433910193977      -0.67555972078702
S         9.83029592779562      -1.37660587978380      -2.71421030082939
C         9.99711848977269       1.48088399674298      -0.19258737125812
C         8.73198826359043      -2.73196435542087      -3.06466332775296
O         7.38517917836813       1.00352640531225      -0.52187525510804
O         8.77733524661208      -0.88208824331838       0.20643749401326
O        10.79871103400415      -1.77899873999968      -1.63673187251142
O        10.58711741403637      -1.03385628905268      -3.96627728443926
F         9.81013331830082       1.85968980331672       1.12305622440799
F         9.94167307462205       2.59921245438859      -1.00252430453719
F        11.23490678729654       0.88193853768039      -0.32495876312711
F         9.46284488385226      -3.83879117903972      -3.45210723877149
F         7.86728350039382      -2.37430796703053      -4.08134403633802
F         8.00508276864631      -3.03699000466614      -1.93218248689338
