51
C13H24F6N2O4S2 optimized with ADF in AMS.
N        -0.36452841620456       0.59358850864384       0.41511755351784
C        -1.23937673620154       0.96798277061059      -0.75888689130673
C        -0.57142223222918      -0.87461165306731       0.73619137928366
C         1.09745619082374       0.83722768085104       0.01697468275333
C        -0.68611927601173       1.42829080197830       1.65621010433702
C        -2.70917118916702       0.67072278580782      -0.51342815585532
C        -2.03284680988622      -1.25029812975965       0.94139205293501
C        -2.91349152892234      -0.81681538004662      -0.22875635645342
C         2.12529846792397       0.06245407946997       0.82375126875400
C        -0.90429084764944       2.90468401716453       1.40421961262140
C         3.52370931004865       0.64635252931812       0.60234518311716
C         4.56761479473450      -0.09923670610393       1.42949747682012
H        -0.87157538521206       0.37091498685828      -1.60874112624964
H        -1.04776603200047       2.02761298797069      -0.97576633132272
H         0.02623412412567      -1.08874170282896       1.63254174253869
H        -0.14383157525422      -1.43001294499406      -0.11409195142543
H         1.26142886578585       1.91811842034754       0.13712253032271
H         1.16589087052801       0.58669323936260      -1.05367428205860
H        -1.56993003975628       0.97836552226559       2.12193441819073
H         0.17192916750472       1.28311094122992       2.32746425885472
H        -3.26852164366706       0.98223866787841      -1.41086063212301
H        -3.09158815958424       1.27872530553396       0.32304225271732
H        -2.41076691806791      -0.81928508056265       1.88291395737467
H        -2.06605585424154      -2.34396985624691       1.07701852103129
H        -3.97196310468148      -1.02897490255052      -0.01081860872519
H        -2.64696414147458      -1.39950742019846      -1.12988232803780
H         2.12450266264426      -1.00414973465859       0.54065866623555
H         1.91138743643919       0.13138149535583       1.90004630566041
H        -0.96074304473143       3.39103268374328       2.39099927529008
H        -0.05511056975529       3.37854834012669       0.89323200163979
H        -1.83928956658098       3.11996378841636       0.86638081588280
H         3.50676820472496       1.70900355918959       0.89731393241354
H         3.78621928528529       0.60557167294359      -0.47156843192551
H         4.61146662482822      -1.16546440032940       1.15292034484241
H         4.32079757635436      -0.03737446549129       2.50026167493039
H         5.56859312736978       0.33202673992756       1.28194502495346
N         1.98237603317212       1.87507908346589       3.44812712823851
S         2.11405094981782       3.47676106658711       3.31623678886095
S         2.00878346662163       0.99026042735709       4.78947090972355
C         3.82557290789995       3.98594111268415       3.95198199241319
C         0.33039179084422       1.20622924967043       5.64323778946507
O         2.20007321879894       3.72742926995845       1.87416864312076
O         1.16801502311812       4.24210734955251       4.12118534817717
O         2.97421120310713       1.40116472877882       5.79703864074980
O         1.94256632999914      -0.39837742400004       4.33271698972814
F         4.13275074467181       5.18333609156282       3.39560251956881
F         4.76123071005727       3.08308822464170       3.57823839677595
F         3.83978652496545       4.11929071306815       5.28920183254317
F         0.20448408023078       0.25136732677425       6.59444411035325
F        -0.69440556215775       1.04306846573934       4.74917518996481
F         0.19563325391175       2.41291729580358       6.22128396248215
