34
C10H16F6NP optimized with DFTB in AMS.
N         1.63464889535243      -0.36457359533804      -0.39395532985259
C        -0.75073497231877       0.01398718580360       0.04610615190106
C        -2.15190772913528      -0.24871124003809      -0.51035262615260
C         0.31202542831252      -0.25897884340631      -1.02532932009249
C        -3.19530799227101      -0.16848760806975       0.60868883604579
C        -4.60005459810698      -0.43690501234138       0.07341565016814
C         2.18666940320448      -1.57092832117339      -0.21425477522554
C         2.21676306571705       0.74517547823414       0.09480863995143
C         3.38117347440056      -1.70327609977963       0.47132064318734
C         3.40504767667286       0.66492525148834       0.78315055941873
C         4.00063002049468      -0.57823415785479       0.98450763103584
H        -0.57449988966732      -0.64970767486633       0.89358577923258
H        -0.66153336308960       1.04693100107028       0.39678270993597
H        -2.17726253730151      -1.24997210467463      -0.95131285346302
H        -2.38389451891589       0.47614394034843      -1.29869184983788
H         0.10795902263883      -1.20664215458830      -1.52598154548433
H         0.34698218237738       0.54427958242276      -1.76618698764348
H        -3.16174481081507       0.82361351333439       1.07184783040793
H        -2.95042247664919      -0.90924146585631       1.37586541654419
H        -4.87091932052864       0.29928090677708      -0.68519393980289
H        -5.32421757886065      -0.38104788340097       0.88608902989137
H        -4.65403831653570      -1.43083285345402      -0.37179186768968
H         1.65887699029237      -2.42642356638462      -0.61434582676717
H         1.70707808722752       1.68509218890788      -0.07928762036981
H         3.78707330942514      -2.69548013642059       0.62037983291609
H         3.85624110492838       1.56925834080375       1.17111193332241
H         4.92805927457943      -0.65733959179243       1.53850721844626
P        -0.04391846967071      -3.54741614941266       1.39212351295847
F         0.78575085574355      -2.10723371239927       1.71475464679744
F        -1.42275882009130      -2.83372381912794       1.91920108934570
F        -0.36095196577151      -2.94781289425227      -0.15252354122545
F        -0.82703813691373      -4.91802630188070       1.02259519292536
F         1.38332304324955      -4.16229437351278       0.80339366600933
F         0.31403372852611      -4.07601585516549       2.88574077996549
