31
C11H18ClN optimized with ForceField in AMS.
N         2.36820173331098       0.03027651035798      -0.53155367300018
C        -1.44880070786081      -0.03485834171947      -0.69486107261515
C        -0.04587941004317      -0.00793456987849      -0.07749109779930
C        -2.52379407239437      -0.04025135279081       0.39781207437712
C         1.03972774574026       0.04285739039624      -1.15666473142007
C        -3.92939904822956      -0.04178854938711      -0.21130900327671
C        -4.99891478021506      -0.08096332712379       0.87578628676819
C         2.97584320610035      -1.16422112946973      -0.25334153752169
C         2.96991817250441       1.21048424536695      -0.18697556591430
C         4.21845610683463      -1.19670593445694       0.38394170085808
C         4.21263275503035       1.21302303418712       0.45148745004947
C         4.83726104232106       0.00058194444708       0.73863683488955
H        -1.55571960785221      -0.94626800620406      -1.32355732636501
H        -1.58622983908818       0.85734588189469      -1.34359027231395
H         0.05583158680070       0.88455585488333       0.57839542290963
H         0.10026810209000      -0.91912534755493       0.54321620199989
H        -2.39444189049361      -0.94503970014083       1.03231640579719
H        -2.40281424379456       0.86188286654807       1.03824589161107
H         0.91320640979420       0.95947893307766      -1.77518343192039
H         0.92991551133604      -0.82556174040381      -1.84404416471967
H        -4.07276782015583       0.87468415405089      -0.82427158355777
H        -4.05361665004284      -0.92925366264375      -0.86922210616450
H        -4.91432645228873       0.81118881125963       1.53212300273446
H        -6.00474259929727      -0.08380401897065       0.40655284973588
H        -4.89052553282665      -1.00022886625040       1.49003296427843
H         2.49632837980231      -2.10052044725442      -0.51359581266796
H         2.48596846065109       2.15768701667774      -0.39408094376459
H         4.69364838984935      -2.14313456509317       0.60759507997642
H         4.68361846696064       2.14748170249839       0.72818349718651
H         5.79649121201575      -0.01141817649386       1.23989433142591
Cl       -0.53474275915928       3.66802555079046      -0.86405099977657
