37
C11H20F3NO2 optimized with ADF in AMS.
N        -0.02977222102700       0.47539084059382       0.33202187015147
C        -1.03373167472899       1.04883301811932      -0.64877032248003
C        -0.50097758426607      -0.90340037215866       0.79615208350768
C         1.28812514445189       0.33398526428276      -0.40890110517263
C        -2.45405280357111       1.08396411396538      -0.10773896395569
C        -1.91194034463172      -0.87513911907709       1.35026861319059
C        -2.90651189509450      -0.30351499260506       0.34585001644183
C         0.15166148355393       1.40434934498624       1.49815900320945
C         2.44259234280619      -0.24845860083802       0.38766486795229
C         3.68251667402336      -0.32896994033801      -0.50281946561214
H        -0.98512004516973       0.40377069219514      -1.54129225357746
H        -0.66968863069013       2.05166858621783      -0.92146810975012
H         0.21495167895864      -1.24284624284501       1.56383420541018
H        -0.44105132094826      -1.54146215662585      -0.10228478660051
H         1.53546287537408       1.34613354360507      -0.77182488984550
H         1.06951844082082      -0.29652352885605      -1.28668276871238
H        -3.09831881269503       1.47129497742623      -0.91523003542037
H        -2.53257541709636       1.80371525635386       0.72406161426282
H        -1.93573182492225      -0.32195491648094       2.30223644023645
H        -2.15484883616233      -1.91216573594307       1.63171900622424
H        -3.91399815740934      -0.24791906026102       0.78772429553671
H        -2.97454033969377      -0.96975266359652      -0.53491187598180
H         0.79694098614881       0.90394469321698       2.24052042888431
H         0.59118738542107       2.33797886133820       1.12174458416206
H        -0.82143863307654       1.60367763492336       1.95607580390074
H         2.65371234563529       0.36349490451657       1.27667317264906
H         2.18622679313135      -1.24707468331551       0.76970807466433
H         3.50769384793848      -0.96775987534844      -1.38360302564860
H         3.98969887418427       0.66696131920169      -0.86042858560165
H         4.52385573427197      -0.75760144809821       0.05999369797623
C         0.24217036596911      -0.88736135881499       3.97904958009663
O        -0.58582915666424      -1.81591064512069       3.97384605389050
O         1.28531328481653      -0.70249688269115       3.28722813482792
C        -0.13135960474999       0.29319269531917       4.94669030085134
F         0.73343497690646       1.35708066612330       4.89495862034565
F        -0.21022435591348      -0.09118115595953       6.25034581106516
F        -1.37332753530141       0.81169465198891       4.60480750512122
