51
C13H24F6N2O4S2 optimized with ForceField in AMS.
N        -0.83679928854882      -0.20576020728370       0.02507115284824
C        -1.17730913489496      -1.23970025258024      -1.00084926082563
C        -1.96980669110948      -0.24225696973458       0.99993386040798
C         0.43273953855115      -0.57432367872558       0.73220270241686
C        -2.60285308805822      -1.69876712242673      -0.75831082644349
C        -2.79911232163657      -1.47874760870791       0.71427280631853
C        -0.76085474882595       1.13916328233998      -0.63275965796230
C         1.69923328785861      -0.55371700543922      -0.15632627514764
C        -0.40486714168989       2.30438816752857       0.32076088475649
C         2.90737797877085      -1.09948085439028       0.61635010465058
C        -0.48981797306607       3.64543255639890      -0.40440793967806
C         4.17610666351406      -1.04761207786376      -0.22821239032935
H        -1.07388715796904      -0.87226687418985      -2.04773203529263
H        -0.52962752890879      -2.14288290562017      -0.92125955090127
H        -1.63667348704852      -0.24852690558260       2.06326367092989
H        -2.64850043829814       0.63443257569347       0.88898367103760
H         0.32835329294613      -1.59442081482727       1.17056752271491
H         0.60624466086786       0.10187189077803       1.59851222080109
H        -3.30937424591621      -1.05929343874906      -1.33285972997360
H        -2.75142942722171      -2.76489424420937      -1.03666609679522
H        -2.39512598065250      -2.34545722979232       1.28330319714188
H        -3.87132836336064      -1.33010752452218       0.96788867190289
H        -0.01867162314815       1.12571095612947      -1.46152942910229
H        -1.73889195507499       1.36939487604915      -1.11663993195512
H         1.54891975294917      -1.16704855555119      -1.06947405051273
H         1.92710031454717       0.48669507182409      -0.46905999123941
H        -1.09481954986680       2.33110690469835       1.18956303723848
H         0.63065643452433       2.19217428164617       0.70233881637319
H         3.06621859000070      -0.49556063837617       1.53651725731137
H         2.71856166361935      -2.15345602655397       0.91558988007067
H         0.22124920943561       3.66728434009301      -1.25769189552390
H        -1.52037043007235       3.81793693629083      -0.78152416139597
H        -0.22788908542555       4.46586042106468       0.29626540227478
H         5.03279950052326      -1.43517042846343       0.36226047490096
H         4.06050344240292      -1.66994184736291      -1.14092345977318
H         4.39347478961256      -0.00055611823001      -0.52174319932889
N         7.20321784629089       3.71952468644816      -3.61127599051034
S         7.72400072276993       2.16739374381967      -3.54131610458189
S         8.14561275701930       4.99195860239671      -3.18829539665319
C         7.30983828552539       1.49013900424483      -1.94837247661881
C         8.82918087045615       5.71756737286380      -4.66311296551260
O         7.02837147093587       1.36651539415416      -4.60497361876897
O         9.21144776234440       2.09465460747543      -3.74849916828060
O         9.26071530933809       4.55542465907644      -2.27884960403618
O         7.30109162548998       6.01926937157025      -2.48958433599704
F         7.67854721553520       0.15910018848122      -1.89961419186619
F         5.94759393911955       1.59806211120916      -1.74979027663934
F         7.97257558263526       2.18666892096428      -0.95585017789879
F         9.64003531262667       6.78299006315432      -4.32115591302799
F         7.80337655612545       6.16346222456187      -5.47499131510670
F         9.57440938215746       4.77363178022750      -5.34412292151702
