38
C10H22BF4N optimized with ForceField in AMS.
N        -0.10399567152231       0.02565019247701      -0.07305262415681
C        -1.01810653839574       0.53293586884283      -1.14832316262136
C        -0.62155562788875      -1.29485546587665       0.41495725817351
C         1.23722552679705      -0.19234450458588      -0.71872151488342
C        -2.49155683087655       0.64095592948047      -0.72188848669537
C        -2.09611243109705      -1.26604649068076       0.86647148572423
C        -0.01214443591568       0.98622323344968       1.08183149527706
C        -3.00645552881636      -0.70483859257033      -0.22167325918600
C         2.37694635861907      -0.64524084580541       0.22814560067789
C         0.59251093044651       2.36477205279069       0.75822241875168
C         3.67214775563452      -0.87217321417141      -0.54994231202146
H        -0.98801738312067      -0.15073928915791      -2.02905767289156
H        -0.68567049730028       1.51909890178366      -1.53508546068009
H        -0.02892271333623      -1.66000943320246       1.28141484151805
H        -0.53239478971295      -2.06778362324653      -0.38272522440709
H         1.56991166343899       0.73149365284098      -1.24317722193517
H         1.14917701548616      -0.95929209327358      -1.52379100331710
H        -3.09714457614635       0.94947068384651      -1.60229518855211
H        -2.63082028318985       1.42387825206350       0.05141572872061
H        -2.21291057461278      -0.67926803015145       1.80128888350724
H        -2.41892009513936      -2.30458944752676       1.09988790718403
H        -1.00787549626185       1.17557597077211       1.52792724954837
H         0.57918966743922       0.54186168748131       1.91142456466372
H        -4.03039839617008      -0.57681089241704       0.18779975520945
H        -3.06080562530641      -1.42306073670816      -1.07008972508900
H         2.58377677713151       0.12594114986767       0.99809307118937
H         2.11715563043663      -1.59728029606531       0.73361146262346
H         0.61787260996820       2.96892856264082       1.69023058080416
H         1.63554964395668       2.28711930912395       0.39297395763633
H        -0.02604376793734       2.92289564287903       0.02826679902721
H         4.47703021483475      -1.18204227022657       0.14958168117007
H         3.53398765111392      -1.67342030269653      -1.30724201541600
H         3.98697094574936       0.06359536257705      -1.05975648271499
B        -6.90308545289320      -0.81390845399468      -1.50560422409242
F        -7.37203330410490      -1.99200873354612      -2.14539040787012
F        -5.73720941708031      -0.34709153256485      -2.16922602190324
F        -6.59540459254326      -1.10352352773325      -0.14979088305851
F        -7.90984199698431       0.18653032888437      -1.55799113631460
