47
C13H13F18N2P optimized with ForceField in AMS.
N         1.08583631362801       0.31138165848157      -0.28201855103930
N        -1.13844118223213       0.27049218697115      -0.30088217130190
C        -0.01177506690744      -0.26315340776878      -0.81257350506545
C         2.47789178963016       0.01437040749052      -0.61318115273847
C        -2.51339269052047      -0.07425664156165      -0.65605983327412
C         0.63885629273742       1.24591064127804       0.58189170418532
C        -0.74068795458443       1.21999406722004       0.57004197916622
C         3.19739612831670      -0.59031645800659       0.58723768740317
C        -3.23988942744801      -0.68204999567621       0.53873559065065
H         0.00890837147102      -1.04870191570849      -1.55822117089139
H         2.52316591506108      -0.70629534861594      -1.45895389254859
H         2.99203257820796       0.94799175144916      -0.92762318940873
H        -3.04862686690321       0.83884209103181      -0.99473877735015
H        -2.51901881832224      -0.80810189558552      -1.49153453678356
H         1.26704730766315       1.90536677751675       1.16689272237604
H        -1.40384815049295       1.85337877897398       1.14390534058648
H         3.21665566442794       0.13274876997906       1.42976504401549
H         4.24269845847869      -0.84039446790599       0.30843396376670
H         2.68081840664146      -1.51824050118988       0.91251657824651
H        -2.70213428282930      -1.58795529852107       0.89052593741639
H        -4.27077710404131      -0.96857788445111       0.24211452541911
H        -3.30001038516245       0.05341575569217       1.36859276441695
P        -1.14170780798325       6.79163538449742       2.68319032897781
F        -2.57003494941586       7.69628791418575       2.34324746765654
F         0.22526027674034       7.68952289327339       2.14027868342407
F        -2.48418971327991       6.01347372627036       3.42648891945830
C        -0.92799419309090       8.18380096488224       4.00815925076240
C        -1.43184881754372       6.56048769989822       0.78366325784425
C        -0.30185780866643       5.13317428280070       3.16906704259390
C        -1.93214632295681       8.15902381090439       5.18110566958194
C        -0.33642834999363       5.81446544733596      -0.01975840349181
C        -0.16936838459019       4.80791943930143       4.66820512628522
F        -1.06850316694573       9.42104566567957       3.38996787810171
F         0.34970077984864       8.14884796225076       4.54428749505534
F        -1.56701442569082       7.80763256513350       0.18116165986735
F        -2.61827311292000       5.86665292685236       0.59818936410689
F         0.97426928019733       5.12224327252928       2.63504725955561
F        -1.01424526689263       4.08861095937974       2.60455489093364
F        -1.69348508474095       9.25007578643200       5.99800509133686
F        -1.78800409082513       7.02127379461212       5.94399004577496
F        -3.23775305487019       8.24022727921345       4.73278254743105
F        -0.61320520586662       5.94475285926127      -1.36955655994201
F         0.92268423321530       6.33892323795224       0.20189330206250
F        -0.32413477477769       4.46490555542404       0.26382283468667
F         0.49839744550740       5.80280054919159       5.34840871554156
F         0.56630503051385       3.64369998389206       4.80424205600478
F        -1.40700259299209       4.58703614885321       5.24365909324308
