37
C11H20F3NO2 optimized with DFTB in AMS.
N         0.16771114948724       0.03974436702766       0.01365982352666
C        -0.81382502954730       0.94775878617205      -0.68207011351655
C        -0.51950143081560      -1.26059266741201       0.32696600820921
C        -2.10718935789840       1.16150353495508       0.09315539041684
C        -1.79825020295511      -1.08184531454099       1.13720736182801
C         0.69152530511658       0.64759533375381       1.28870533896930
C         1.28112767833812      -0.21518694141466      -0.96495140418224
C        -2.78365372458584      -0.16645661281539       0.41590428831826
C         1.52182950248408       1.90684792110878       1.10961275567444
C         2.41191000978164      -1.08877295174347      -0.44189439262210
H        -1.02926152279702       0.48344238026077      -1.64987468353317
H        -0.31134089589784       1.90035561161942      -0.85649942213459
H         0.18785150879305      -1.88393002733041       0.87698896870902
H        -0.74468079438576      -1.73920992514955      -0.63126435003381
H        -2.76056914304151       1.76946591031054      -0.53851445809276
H        -1.91666434322635       1.72563632866204       1.00974212658889
H        -1.57319655694674      -0.68227799087947       2.12733933403570
H        -2.23652104654876      -2.07457412264233       1.27027695194799
H        -0.17474064477003       0.89475240026830       1.90002300516350
H         1.26949326775584      -0.12620937816986       1.79818213661856
H         0.82953905043724      -0.68600231730995      -1.84233394071812
H         1.67220006416201       0.76034105355955      -1.26251548025276
H        -3.64564562342979       0.01358630567090       1.06101937205097
H        -3.13186536157936      -0.64678576918042      -0.50563842396535
H         1.71879269984651       2.29256591411981       2.10917315256404
H         2.47301187382941       1.72117047996292       0.61174373826010
H         0.96905810554543       2.67572121244774       0.57441124001436
H         3.13241660806526      -1.21207166382515      -1.25051515303752
H         2.92311681914142      -0.62846916533097       0.40098489501326
H         2.05926600640867      -2.07560941806418      -0.14771502736207
C        -1.22566996636801       2.92900239282063       3.55652329602671
O        -0.82794956024965       2.85910014101236       2.38823290739206
O        -1.23826465369812       3.79179409411322       4.39975068906338
C        -1.85724204051267       1.47459007070073       4.03015677127076
F        -0.90526185527497       0.49295563335346       3.93720415118147
F        -2.84626619519755       1.06676246977710       3.18736079941625
F        -2.35172182376614       1.40400504253195       5.26590539379133
