34
C10H18F3NO2 optimized with ForceField in AMS.
N         0.42842681773511       0.24656465521493       0.05498624072776
C        -0.53103957384815       1.27779719153700      -0.45413394579896
C        -0.07450488150079      -1.12760167118298      -0.25328476338155
C        -1.98912617634845       1.06622187080098      -0.00364401103550
C        -1.51568420672334      -1.37818579613356       0.22478083570614
C         1.72709285617142       0.48373654130687      -0.65784799728511
C        -2.46698812102675      -0.33801049013879      -0.35396595225766
C         0.63139703570471       0.42076218111359       1.51885077527973
C         2.89549850120898      -0.43023993233040      -0.24263697430651
H        -0.53496681529932       1.28325890240022      -1.56935679717878
H        -0.21376342665715       2.29666970921389      -0.13459215529272
H         0.56415259216238      -1.90133745554756       0.22420105258713
H        -0.04375245798078      -1.31093706506987      -1.35134055162153
H        -2.63753164290139       1.80458375818333      -0.52324048996988
H        -2.10420445097049       1.25116380356148       1.08434597349659
H        -1.56766875098197      -1.36836762979983       1.33422829557230
H        -1.83896858916054      -2.38755519190454      -0.10994801545893
H         1.59058869432736       0.36409245734729      -1.75685596710463
H         2.06334017825269       1.53486833175889      -0.50157553975884
H        -3.48754030685822      -0.49720945337170       0.05659896797052
H        -2.51783248825673      -0.45139266532940      -1.45959474015348
H        -0.32206471204953       0.41191145610463       2.08104887023031
H         1.24395678958222      -0.40226958608467       1.94481531478186
H         1.13749012297852       1.38679003319174       1.74009866016224
H         3.77578378935090      -0.19551339511863      -0.87751516357177
H         3.19626559933473      -0.25178577515851       0.80944126697344
H         2.65949248369388      -1.50130581149350      -0.39483381476846
C         2.14995157810689      -1.91044481575038      -3.76351073004853
O         1.01234343732010      -1.50954654400841      -3.95156217855629
O         2.36344999127053      -2.73123935565985      -2.88604768574026
C         3.28290231569919      -1.40506922119064      -4.60517228877261
F         4.23561001193553      -0.81783474786084      -3.79328594677260
F         2.82959068440911      -0.46917233682733      -5.51876529321757
F         3.85544771531935      -2.46174202077345      -5.28889568113583
