27
C7H11F3N2O3S optimized with ADF in AMS.
N         0.61574572784252       0.49011132479708      -0.33437162702339
N         2.39515955815818       0.17587475448515       0.86613736695003
C        -0.36098607928012       0.35830285448375      -1.41957720008482
C         1.66746480786284      -0.31037658036154      -0.14969710866870
C         0.68493188368031       1.53578149062164       0.56310471372019
C         1.80326309903122       1.33819264370717       1.31670607213368
C        -1.74877669277551       0.04669866278153      -0.88545023366465
C         3.70852363867582      -0.33871396864672       1.23992357223381
H        -0.31196620345375       1.29334057677830      -1.99554357138691
H         0.01433291573520      -0.43496227615831      -2.08027194693332
H         1.93051687399852      -1.16180303201202      -0.76129598919003
H        -0.03577019487696       2.34256328792145       0.56022831617911
H         2.24477550902930       1.93580468376585       2.10345573400730
H        -1.74512991135409      -0.88979762437623      -0.30815555487336
H        -2.45068503459549      -0.06089426939682      -1.72439472116577
H        -2.11905784630229       0.85430961759208      -0.23655589962383
H         3.61829598985613      -1.38651191224636       1.55346317491581
H         4.36288439538749      -0.24895591739512       0.36120194860673
H         4.09537013015435       0.26088827195469       2.07001938388678
S         3.39695051991654       1.33013865581944      -2.55386351397761
O         3.62674630919546       0.02477872653022      -1.87546895941631
O         2.06152010743615       1.90735570944177      -2.30348768237202
O         3.91040992269465       1.42242206726182      -3.91800433844874
C         4.52751222635991       2.47344771910590      -1.58028904397864
F         5.81664539345253       2.04090194090014      -1.60346854926082
F         4.15145671576157       2.53470583361979      -0.25453779159480
F         4.49965283370950       3.73958260802532      -2.06354905326974
