45
C11H24F2N2O4S2 optimized with DFTB in AMS.
N         0.73707113483082       0.06137295687455       0.36534195849432
C        -0.71030615897412       0.31466709974854       0.05196630603760
C         0.87348989961728      -1.31009477528214       0.97706993093969
C         1.46551575288230       0.08535083615609      -0.95597818488506
C         1.29218163715189       1.08866511957361       1.31583593647713
C        -1.63217498747419       0.14110517300047       1.25290175288024
C        -0.03812178108688      -1.52571915516248       2.17804501377193
C        -1.49862925929903      -1.26905634415892       1.82422547401885
C         2.96362816607861      -0.19277188205836      -0.87874797997501
C         1.32109059717116       2.51322353499968       0.78842616879483
C         3.60245352934019       0.01126530831811      -2.25739089322558
C         5.08796407870318      -0.34410359778372      -2.20992539765102
H        -0.99151601065262      -0.39867754725946      -0.72809669761403
H        -0.79028279385138       1.32348751223466      -0.35712266922035
H         1.91411705588199      -1.44020160143940       1.27598830359234
H         0.63568538064554      -2.02984969275690       0.18873957652016
H         1.28118482046868       1.06585191042538      -1.40213013661567
H         0.98634778936889      -0.66804305663485      -1.58767519530091
H         0.69265725316330       1.04702009191349       2.22520568714377
H         2.30605580688016       0.76981392786803       1.57272778218298
H        -2.65432084679800       0.31452571276172       0.90566383478068
H        -1.41037770726376       0.88458403776999       2.02241254194189
H         0.25903007315140      -0.88172755949426       3.00700620238433
H         0.10194080950315      -2.55947494749919       2.50236338599091
H        -2.11899634554575      -1.36561915465484       2.71785925848505
H        -1.84486011138457      -1.99961067398323       1.08556718659822
H         3.13706827041176      -1.22024608672295      -0.55535141367524
H         3.44948046658955       0.47327737560197      -0.16397083195088
H         1.70733327439205       3.14048191607960       1.59194754769718
H         1.98375011280580       2.61958058941055      -0.06864726444535
H         0.32977068743638       2.87694519899046       0.52128582448882
H         3.48049716073810       1.05563543049612      -2.56487266783869
H         3.09402161363855      -0.61848363669132      -2.99591323762026
H         5.21735908366600      -1.40723721608167      -2.00734276353724
H         5.58670928839686       0.21868073046122      -1.42120988044080
H         5.55748278412506      -0.10798314468768      -3.16474364491228
N         3.86676765750865      -0.01128477884182       2.78853168230591
S         4.94653775666068      -0.95996258066557       2.10604587693697
S         2.94455767196874      -0.65775984898960       3.91302489071083
F         4.00689916053169      -2.05331870969225       1.30722633736752
F         3.86504668737082      -0.70765980090810       5.22537637930871
O         5.54663946596696      -0.21151779151058       1.04799159505919
O         5.75666048588482      -1.75734796108682       2.95846348336040
O         2.52780797205457      -2.01024318907848       3.69706741898760
O         1.92858423794472       0.31009159384035       4.21349817395031
