34
C10H21NO2 optimized with ForceField in AMS.
N         0.02297530260722       0.00173177831583       0.00366942693998
C         0.93298293998473      -0.84255337471694      -0.82990298195894
C         0.93242745242121       0.86247286963016       0.82176716110987
C         2.34019374024440      -0.29101824627324      -0.70672326860118
C         2.35237758594987       0.35741060572769       0.64901911824110
C        -0.79831867507223      -0.86405035223994       0.91112086851033
C        -0.82772657574582       0.85255958338323      -0.89067559932243
C        -1.79964834236118      -1.78107279124142       0.18476661438543
C        -1.83705675614510       1.74821932993102      -0.14896717079567
H         0.63595710140273      -0.88473058525080      -1.90304992403684
H         0.96921919611500      -1.89900676202663      -0.47612212473712
H         0.66737888187957       0.88006381959936       1.90398860514110
H         0.92606801759348       1.92449137275296       0.48366461386222
H         2.51662868423536       0.47383271602426      -1.49495610180195
H         3.10781644645758      -1.09207833317311      -0.78199777419750
H         2.58116020610216      -0.40128051845497       1.42997384125057
H         3.09572546360006       1.18310418467295       0.69887617341222
H        -0.13022147807399      -1.50827523305039       1.52842191638574
H        -1.36628093928086      -0.24551686557967       1.64042120727020
H        -0.18084148451665       1.51051493961694      -1.51606895779448
H        -1.39407789969402       0.22413532141468      -1.61277331412125
H        -2.23973066904422      -2.49114837840139       0.91603941136329
H        -2.63433163141562      -1.19667310401033      -0.25240886912627
H        -1.31102255545241      -2.37113047031535      -0.61646320155499
H        -2.29889291656351       2.45245160234285      -0.87235569174253
H        -2.65543037869911       1.14658525884694       0.29565398910055
H        -1.35055094821930       2.34427465861534       0.64903394207566
C         4.87847867992007       2.97097208384469      -1.98671622489056
C         4.46245443830302       4.13158722590054      -1.13914767206276
O         4.95876306134945       4.28858334748971      -0.03524385128792
O         3.62941976076688       4.92494611430929      -1.54713919212160
H         5.96370449978893       3.04309802427668      -2.20986178698633
H         4.67960403733281       2.02300416080122      -1.44462436828689
H         4.31488777642955       2.96275585863786      -2.94416439662107
