29
C7H13F6N2P optimized with ADF in AMS.
N        -0.83813376132578      -0.50911498528447      -0.18307613807177
N        -2.74042466683377       0.10442443072154      -1.03448673725913
C         0.56811146707934      -0.49424328252062       0.25290626307706
C         0.76547925861326       0.21847262017703       1.59034429914124
C        -1.45147490211222       0.44122614522046      -0.89985039700724
C        -1.76987546849100      -1.46061338475349       0.17460374330113
C        -2.96319206822306      -1.07301890797167      -0.35753005932343
C         0.65493601785455       1.73573618683913       1.49972867090901
C        -3.76695592040594       0.94346080385137      -1.65025651141724
H         1.15242981077172      -0.01241776614920      -0.54767218630400
H         0.88054546569558      -1.54850449252947       0.30493790670537
H         0.02520046629185      -0.16614349456547       2.31225176848165
H         1.76553296410789      -0.07540736254872       1.95628845339799
H        -0.99052838917310       1.34314101234273      -1.27997791715566
H        -1.51373765373061      -2.30395185922375       0.80258611996207
H        -3.95233565542013      -1.50343616133341      -0.27196501461204
H        -0.34207237682188       2.04900322501623       1.16031532415783
H         1.42582986466809       2.15142202183485       0.82870173473116
H         0.78962975050427       2.18685916836052       2.49396254704564
H        -3.34511542909661       1.43416425567429      -2.53532732368154
H        -4.60256111382737       0.30312888660423      -1.95387594072430
H        -4.09794410599834       1.67842219375954      -0.90558253680384
P        -3.34059943392206       1.87375135917125       2.22727795660693
F        -4.39406894598217       0.94747790636377       1.31079432330080
F        -4.38081668174090       3.13722428719278       2.14105317616684
F        -4.03502066036712       1.32651827027916       3.60291548507449
F        -2.25257907793823       2.76763536743006       3.07283857100927
F        -2.27960286351442       0.58068564034523       2.23468826044833
F        -2.61906465166183       2.39770623889611       0.78714299724337
