36
C10H19BF4N2 optimized with ForceField in AMS.
N         0.36169337176002      -1.61201978056035       0.30459471280763
N        -1.76110118177029      -0.95589307996010       0.26241999118696
C         1.75874254917283      -1.73292957524926       0.71267614470718
C         2.64691008823900      -0.74935277168993      -0.06144237636773
C        -2.99589036559758      -0.25913302275524       0.61623031002797
C        -0.61888735990495      -0.97758161339467       0.97530329902032
C         2.25394957381217       0.71152933284872       0.20527227408454
C        -0.17955018980786      -2.01355511113341      -0.86308086958240
C        -1.49832797018000      -1.60889531275905      -0.88812485482132
C        -3.21472317201746       0.96456711528274      -0.28280316333988
C         3.20507265025849       1.68028091606605      -0.49002052971323
C        -2.07696397808962       1.97889320428401      -0.16424264977891
H         1.85045172538597      -1.53936527488773       1.80234961279536
H         2.10600156090488      -2.77232190253349       0.52921795657514
H         2.57376920729620      -0.96471390576696      -1.15000347187712
H         3.70209322869734      -0.91043379567803       0.25097161402083
H        -2.95944044883857       0.06634273692325       1.67957466923649
H        -3.85339372191820      -0.95720519167573       0.50782777475692
H        -0.48710047162798      -0.48996898753590       1.93380553687343
H         1.22671378412049       0.89892454663860      -0.17384539423466
H         2.26847227267884       0.91358128479400       1.29887222566633
H         0.35104477948789      -2.53581562021813      -1.64839385584952
H        -2.20174257008106      -1.75164977712910      -1.69778852958062
H        -3.30902279269743       0.64097326585009      -1.34193001949033
H        -4.16692733882836       1.45708679279232       0.00995630599765
H         3.20246154494278       1.50390607096782      -1.58728883519906
H         4.23713802506157       1.55638792617451      -0.09801762973386
H         2.87518009927076       2.72348647138377      -0.29833886616261
H        -1.13642607395340       1.55397345405087      -0.57391624018869
H        -1.91854333648587       2.26465492662080       0.89782536476734
H        -2.32897200573572       2.89013944210523      -0.74639521758908
B         4.16474537867122       0.02063369819194       4.62457839664833
F         5.31072338135645       0.56890776650564       3.98973990710558
F         3.41077381549788       1.06348057639705       5.22541736920460
F         4.57211837361678      -0.90504529987122       5.62174894350057
F         3.36482407490282      -0.64579742537913       3.66107905632587
