43
C13H24F3NO2 optimized with DFTB in AMS.
N        -0.15096938058738       0.16880028515291      -0.11653179294784
C        -0.80681934934266      -0.81923860894812      -1.05506619708545
C        -1.21451043708707       0.55561930767408       0.87558329929048
C         0.98776016903795      -0.48380397180708       0.63600329633348
C        -2.25653410064852      -0.96322091382555      -0.60319436611901
C        -2.20118630285636      -0.59920767245992       0.87719142753089
C         0.31491745123380       1.38329336561034      -0.88585789491443
C         2.02499818091110      -1.20116353852295      -0.22587022864625
C         0.62350605587260       2.61154008231727      -0.02985402504561
C         3.15037711609761      -1.72329763179780       0.68004946656353
C         1.12621606168694       3.72935776974622      -0.94332827527775
C         4.31059989694802      -2.25782787649944      -0.15605101339434
H        -0.71466926976136      -0.46141659775734      -2.08008999249517
H        -0.29217226348464      -1.77530116813219      -0.97127338410587
H        -0.75505191411398       0.75662629767798       1.84230795195521
H        -1.71021045471702       1.45739295342949       0.51199589489997
H         0.53104000873280      -1.19139024352641       1.33410398969818
H         1.48318830060880       0.31046964789761       1.20067650109500
H        -2.90166767010983      -0.26384018439681      -1.14121168641671
H        -2.61977660790258      -1.97742519668743      -0.77193445358813
H        -1.82890151734886      -1.43765468030491       1.47082565663622
H        -3.17037620768841      -0.28952708740094       1.26862006421731
H         1.21659710195026       1.09395083572805      -1.43084394195821
H        -0.47895944056575       1.62245301740282      -1.59940078689335
H         1.58477619288338      -2.04766347322018      -0.76183479297395
H         2.44449254467853      -0.51506294029281      -0.96366387871349
H        -0.26892342711287       2.95361043128445       0.50246097192081
H         1.39840358896917       2.37543994393015       0.70235675162908
H         3.51139576423813      -0.91187386146876       1.31756441346661
H         2.75764700282280      -2.51526019087272       1.32773038754802
H         2.03496884130330       3.41187092496265      -1.45331058178695
H         0.37214552316925       3.99228052931557      -1.68742505471835
H         1.35114994652762       4.61138142009046      -0.34485168327902
H         5.08734203731686      -2.64885608185669       0.50062728746512
H         3.97586262462431      -3.05769610245546      -0.81881921833701
H         4.73731036018922      -1.45676616703323      -0.75952160043804
C         3.84415077291156       1.46387182653786       0.01023060296323
O         3.35967445363691       1.51613249907077      -1.12138178006754
O         3.30319947202319       1.44817689288252       1.11829433836081
C         5.44471447286807       1.34037717140249       0.05487097831451
F         5.83829918211883       0.48097501781999       1.01521268715714
F         6.04763451789008       2.51451650550826       0.30721271163530
F         5.94982123007610       0.87768956012480      -1.10139235567838
