43
C13H27NO2 optimized with ForceField in AMS.
N        -0.83651367547060      -0.19506357150804       0.03553518769610
C        -1.16486537725696      -1.25221407651754      -0.97087648862632
C        -1.98007383957932      -0.21126310694690       0.99851917165948
C         0.42852149459259      -0.54545106741880       0.76048814429718
C        -2.59112095418869      -1.71008242504817      -0.73204549754918
C        -2.80274719723985      -1.45661366279383       0.73367573727509
C        -0.75509889363936       1.13686562337027      -0.64800022835025
C         1.69823495486945      -0.52993863903647      -0.12391956138527
C        -0.39531194658281       2.31527239764713       0.28809086100994
C         2.90681315181565      -1.07541545053250       0.64547715407938
C        -0.51222670436654       3.64932234051247      -0.44355765226405
C         4.15873952793236      -1.07167094211745      -0.22594695508593
H        -1.05053574708942      -0.90908022405588      -2.02467245898447
H        -0.51693903896383      -2.15262933623736      -0.86416281870376
H        -1.65976081052156      -0.18785864582888       2.06525189623450
H        -2.66115464627534       0.65974852026892       0.85707616548406
H         0.32638709854377      -1.55804420679873       1.21627480906866
H         0.59313195706825       0.14561364008344       1.61665758220506
H        -3.29325088812438      -1.08635293142384      -1.32883465744246
H        -2.73303922383565      -2.78303290811943      -0.98681489205403
H        -2.40134481022445      -2.30809432901564       1.32696890378102
H        -3.87786032608473      -1.30512477555392       0.97279049128914
H        -0.01077498668169       1.10723225144170      -1.47435925551993
H        -1.72987902021198       1.36160461092103      -1.14074298350308
H         1.54619262531052      -1.14240951031556      -1.03710197966963
H         1.93037632182436       0.50900605304575      -0.43790284558293
H        -1.06584401853615       2.33937188973353       1.17192294946713
H         0.64952213965419       2.21918714917242       0.64875414900747
H         3.09141666302503      -0.44935581188238       1.54559321014808
H         2.70444927365345      -2.11761569345683       0.97542263828594
H         0.16823417425619       3.66803786954103      -1.32157199893495
H        -1.55671616010763       3.81297018395072      -0.78421039835547
H        -0.22967085366603       4.47587478450355       0.24206939375932
H         5.02144614013386      -1.45687467789684       0.35706356545311
H         4.00706247203658      -1.72550607447766      -1.11031975682358
H         4.39116416393293      -0.03990506805698      -0.56638578056506
C         6.93908533459966      -3.59967138521897      -3.87373508564097
C         5.99983348120556      -2.45666127389449      -4.09677685700647
O         5.72790994711680      -1.70376528103053      -3.17647063294718
O         5.50588478463300      -2.27084110116215      -5.19718246247012
H         7.92490213860204      -3.21222400018715      -3.54091939697526
H         6.52952399423524      -4.27347653716192      -3.09202606262378
H         7.07937137730547      -4.18025209309714      -4.81059316363653
