41
C11H24BF4N optimized with ADF in AMS.
N         0.18763898799367       0.55533896387385      -0.25802721378201
C        -0.37374005544683       1.31884159505818       0.93987639973685
C        -0.96534562130513       0.06352709497956      -1.10522189787806
C         1.05484336153458      -0.58855118073639       0.23535358794316
C         0.99058818758131       1.52177821718077      -1.11925644821225
C        -1.38582334040490       0.51319690968157       1.73577332274564
C        -1.94347271126017      -0.79993232346476      -0.32729272776240
C        -2.51462321620726      -0.02919417904117       0.86334490947875
C         1.55452001066610      -1.54091165315096      -0.83605839575613
C         2.25620825053078       2.10786718738038      -0.49102542103284
C         2.53368871071284      -2.52828188793515      -0.19482160708745
C         3.55509104070365       1.40051277898963      -0.87530001114360
H         0.47420247452593       1.60732061245878       1.57897810432513
H        -0.83884617867453       2.22156196980047       0.50900026594690
H        -1.47138418720840       0.97002702329903      -1.47606671603048
H        -0.53363482076497      -0.46535012710600      -1.96603461164041
H         1.89058949926845      -0.13177203929127       0.78247042677911
H         0.47340956631828      -1.12731055938649       0.99194907619301
H         1.22365820996497       0.97981021572603      -2.04930864261746
H         0.27262036819958       2.31751792280787      -1.37021615470386
H        -0.86784747708509      -0.28775882051345       2.28528881897315
H        -1.77719035292910       1.19008746671427       2.51254196790699
H        -2.74342213996759      -1.10246752822880      -1.02334293364722
H        -1.45159450078389      -1.72702714611422       0.01113080355441
H        -3.18315885789981      -0.67529172136032       1.45384593241730
H        -3.12736255137071       0.80983232415438       0.48382264004632
H         0.72245456532979      -2.09968926191358      -1.29849179759919
H         2.07021607295625      -0.99190932219029      -1.64141476014652
H         2.30679486979694       3.15633744366120      -0.83081627154102
H         2.17564819728348       2.15707903475581       0.60722211586263
H         2.93746886116513      -3.21942821524165      -0.94825560173452
H         2.03675886167343      -3.12169463430475       0.58797345541855
H         3.36858468557645      -1.99497737488197       0.28394657997723
H         4.41256076745525       1.97735866474891      -0.49995804574795
H         3.65502282958765       1.31134052609383      -1.96971238021098
H         3.63108341012643       0.40335509606313      -0.42281135329673
B         2.47461823832276       0.65002792891706       3.20899768774867
F         2.01257611114158       1.96307030544521       2.81141767934560
F         1.33217204553305      -0.21295978600512       3.27274728894054
F         3.13723942126330       0.70927496778967       4.43038487593060
F         3.34486270099674       0.17056333138674       2.16786164250053
