61
C17H36F3NO3S optimized with DFTB in AMS.
N         0.13117404323998       0.37128899429392       0.07412700014499
C         0.83742092944411      -0.83063494941761       0.63118479124098
C        -0.70444499188718       1.00680606624511       1.15703063760354
C        -0.72241075260454      -0.07787438875934      -1.08454095542500
C         1.10642791466334       1.40634942565717      -0.42759666049498
C         1.83142953302793      -0.54511338806749       1.75541973390596
C        -1.62484210672837       2.13310092801065       0.68872643041293
C        -1.89992019354342      -0.98305289885093      -0.73700241089473
C         2.12926761595669       0.91615090645767      -1.44789879173557
C         2.49096852196573      -1.85960154251496       2.19220043452455
C        -2.41710366880867       2.67412742770759       1.88392700701942
C        -2.73521828347226      -1.18558777775532      -2.00960861910180
C         2.81244412416671       2.14123836179787      -2.07272379809778
C         3.49395474167705      -1.62247698731497       3.31900054182264
C        -3.34391292418965       3.80378623093512       1.43891446934275
C        -3.95352053462385      -2.06265335213539      -1.73486541744621
C         3.81196083149695       1.72378332649791      -3.14766814878869
H         1.35371163443128      -1.31131593246955      -0.20329699718065
H         0.06531952016517      -1.51271028405357       0.99507201105243
H        -0.00738003372148       1.39672570650877       1.90290725709800
H        -1.28852689561782       0.20886130478647       1.62289824685923
H        -0.06447424509238      -0.59821888328090      -1.78226202337377
H        -1.09263751486686       0.82362059406256      -1.57263642333064
H         1.61443382067009       1.82528434838192       0.44404848149936
H         0.50482985487925       2.19332820260494      -0.88585087341582
H         1.32358836326173      -0.09736540330582       2.61342335170170
H         2.60629378475178       0.14760711708561       1.41909347661779
H        -2.32488536183488       1.77729487763109      -0.06862492426378
H        -1.04406858529917       2.94496883839275       0.24776050630830
H        -2.53272866470663      -0.52972561112252       0.02932912129439
H        -1.55493124597963      -1.95243852577552      -0.36318364236407
H         1.64319106476348       0.34869945253590      -2.24380481531941
H         2.87854766626394       0.27231670564479      -0.97687742709008
H         3.00257899596904      -2.31088492004698       1.33580762237620
H         1.71931993912903      -2.55947023926579       2.52942077722827
H        -1.72491828170734       3.04390530134902       2.64867535466896
H        -3.00830241263143       1.86584794662669       2.32903669686861
H        -2.11311751784820      -1.64973680612980      -2.78159548022589
H        -3.06014564888853      -0.20882371793679      -2.37968921768132
H         3.32505665457519       2.71154107456266      -1.29106084511719
H         2.04711552105048       2.78625778877307      -2.51541141674048
H         2.99768856571514      -1.18899947549438       4.18797020828443
H         4.28162471922094      -0.94258051545368       2.99262004872312
H         3.94962441094602      -2.56740920735531       3.61362876895967
H        -4.05151467628948       3.44199030989602       0.69282681108835
H        -2.76639295139392       4.61838622057948       1.00188722777063
H        -3.90095073758359       4.18729713024548       2.29370188823052
H        -4.59699529676516      -1.59920605463690      -0.98588544528278
H        -3.64838891346614      -3.04549303884219      -1.37167929596213
H        -4.52739065192424      -2.19349497270922      -2.65191023463312
H         3.30577079060684       1.18310081698137      -3.94799951314605
H         4.58609109779169       1.08006382018291      -2.72660753438389
H         4.28688715200489       2.60768615800053      -3.57257928168987
S        -1.56979011079396       3.16830794833169      -2.91606419564086
O        -2.45157157903599       2.13052613781251      -2.39304666170703
O        -0.48686223787300       3.51739063009227      -2.00115273655136
O        -2.22202475534878       4.27399712938938      -3.55793008084033
C        -0.65450581983520       2.27291956753596      -4.26282404845815
F        -1.44789390955823       1.86993201391468      -5.24407728930085
F        -0.07895768560854       1.17237186841441      -3.73124656569957
F         0.32062361049408       3.00991571506901      -4.78071402386390
