36
C8H18F2N2O4S2 optimized with ADF in AMS.
N        -0.33086835330319      -0.27620457227386      -0.01785910190748
C         0.19958348565986      -1.34008305386588      -0.97047665242724
C         0.91936461010214       0.49612256267868       0.34341147494004
C         1.31209561663962      -0.65395044621371      -1.77055651465728
C         1.71098989740286       0.60307828499865      -0.95519279186113
C        -0.93735344792015      -0.88354342602451       1.22479687162419
C        -1.32392447076260       0.60198598454030      -0.76946068189987
C        -2.16646334295934      -1.72921325145801       0.97163336057405
C        -1.98951628137647       1.67020872667263       0.07117808590999
H        -0.62982231399366      -1.71638127553101      -1.58190146658073
H         0.58898203093341      -2.14756080375830      -0.33189390086118
H         1.45020105152904      -0.11944916816398       1.08566637368024
H         0.63874596863833       1.44995731353245       0.80656479149565
H         0.94507311123373      -0.37811103729937      -2.76711897598585
H         2.15596629620198      -1.34605359706893      -1.90164957555442
H         2.78835115008795       0.64639148431408      -0.73908683596236
H         1.45376944967158       1.52347522637306      -1.49985504323918
H        -0.13121886773455      -1.48386216306877       1.67516524039980
H        -1.14970736459887      -0.04539514772722       1.90575790389086
H        -0.77097133632357       1.03139148585014      -1.61448612609077
H        -2.06043320684629      -0.08426289311528      -1.20330696362186
H        -2.50353214577465      -2.14005747085624       1.93548993285088
H        -2.99506950251007      -1.15499042596189       0.53827649923858
H        -1.96018052407649      -2.56744549684971       0.29386918627216
H        -2.63066438878217       2.25817557021594      -0.60381225395031
H        -2.64269479203749       1.24957043404941       0.84829155979567
H        -1.27936514014194       2.36753038655499       0.53832447093676
N        -2.94878867852806      -1.49852088448955      -4.59014897430432
S        -1.42642343683511      -1.01685511921005      -4.71620336420050
S        -3.65509867773479      -1.60834651868969      -3.16324922715194
F        -0.56195971731491      -2.29614836595668      -4.07084448879263
F        -3.94143199522472      -0.01287194130153      -2.73566145484918
O        -1.05634290702282      -1.00304716894283      -6.11141990533193
O        -1.04133808946512       0.09003406893016      -3.84264654117583
O        -2.79858118805718      -2.06076694754566      -2.06446292446586
O        -4.97393421927628      -2.17230865033781      -3.32538573183704
