30
C8H8F6N2O4S2 optimized with ForceField in AMS.
N        -0.70640161800588      -0.00058408887765       0.01829011641146
C        -0.02746640018447       1.18633625337023       0.00846486593206
C        -0.02898853865711      -1.18863806287647       0.01270691290901
C        -2.17046865323027       0.00180611614881      -0.01510488188955
C         1.36982069498522       1.20374752175627       0.00527050067258
C         1.36848080314195      -1.20765095373923       0.01022237154092
C         2.06948936785157      -0.00223491427378       0.00575358849226
H        -0.56476354760402       2.12737137559840      -0.00115172224058
H        -0.56718089719541      -2.12872702927859       0.00493824671340
H        -2.57882250422983      -0.89325820843014       0.49863761023942
H        -2.57696964496711       0.89791559594371       0.50196296758368
H        -2.51820207560922       0.00160172441383      -1.06945364761461
H         1.90427186151332       2.14500384013744      -0.00267541714558
H         1.90229632562083      -2.14926915417387       0.00558891717547
H         3.15214996966105      -0.00228756731743      -0.00223790883576
N        -1.13361636283165      -4.57563210704742       1.41936897248680
S        -2.09267376936714      -4.00542048795138       2.61976340487513
S        -0.56085029663617      -6.11106684623674       1.38826480274189
C        -1.07675683931426      -3.24044036039028       3.86586245754266
C        -1.57772842538202      -7.08776878319775       0.30113765779750
O        -3.02585344555277      -2.97200232426538       2.05665986850462
O        -2.89304142127410      -5.11917953635233       3.23639408264763
O        -0.57020167315065      -6.71557520251935       2.76531793940617
O         0.84343608059348      -6.10123279168773       0.85371525140312
F        -1.87872853574255      -2.72861994831038       4.86781726503892
F        -0.34394159408012      -2.21561669307177       3.29797771598530
F        -0.21407503701318      -4.17624527775192       4.40342631888009
F        -1.11855734746100      -8.39079546609088       0.28158773866669
F        -1.52172995794000      -6.56383883577315      -0.97630642116792
F        -2.88583787013850      -7.06962067825507       0.74584093674720
