61
C17H24F18NP optimized with ForceField in AMS.
N        -0.55819345989644       0.11475781012208      -0.10073609488346
C        -1.56585979498028       0.56472994197397      -1.11556901469758
C        -0.88834809026491      -1.28646518914844       0.31892342843017
C         0.77556291646633       0.10544855695473      -0.79620674326478
C        -0.54445397663468       1.00968344116973       1.10849236670729
C        -3.02624726729876       0.45105124707248      -0.64570820375713
C        -2.33807123149653      -1.47198089621208       0.81039694668837
C        -3.34248747835110      -0.98095674805202      -0.22720616607337
C         1.99230436625214      -0.26311194240041       0.08852313260985
C        -0.12233035809330       2.46860864241944       0.85560227137676
C         3.28262446880873      -0.29564155965612      -0.73982937557559
C         4.48049533370366      -0.68654774251671       0.12223460637366
H        -1.47700578083437      -0.05249410930723      -2.04057899973436
H        -1.37565979485484       1.60807461244760      -1.44216069729122
H        -0.22666015830214      -1.61782139577874       1.14572003754360
H        -0.72844283868626      -1.99519111409252      -0.52645616036093
H         0.97456060877940       1.09330692506055      -1.26836154229406
H         0.75220681783680      -0.61667868767860      -1.64564341509871
H        -1.54047344607059       1.05097142427957       1.58962993009880
H         0.12167138687160       0.59161470171218       1.89436157822032
H        -3.69766995852138       0.73337282702665      -1.48510151396833
H        -3.23864523857283       1.15583779816606       0.18416633002723
H        -2.49934055489833      -0.94970261496194       1.77641223690997
H        -2.51863601875639      -2.55249911181253       0.99805927168225
H        -4.36845213364580      -1.02639998810320       0.19770376970073
H        -3.30950815996461      -1.64528527190194      -1.11867964131593
H         1.85128871891700      -1.26462720624531       0.53644625065585
H         2.12530611235209       0.47954699437440       0.90143882762799
H        -0.12552267949628       3.01289540975911       1.82332066941662
H         0.90491279414366       2.54196203504186       0.44771819506859
H        -0.83586688241145       2.99098504736395       0.18852224795949
H         3.46949433767436       0.70660068663996      -1.18334360513055
H         3.18126718282255      -1.03343130308375      -1.56551635783440
H         4.32872010718623      -1.69732051218953       0.55816223576975
H         4.62245242426902       0.04864875812276       0.94291097291753
H         5.39824931009296      -0.70392674211701      -0.50207561155881
P         1.71848784828911      -3.19866309071218       4.93349033809791
F         1.32319403541178      -1.79434995400047       4.01793601848465
F         3.32092831218126      -3.74219253862890       4.60267829679530
F         0.23379278472632      -2.69335064001038       5.64209444219904
C         2.80051404615241      -1.85944612995531       5.82547069216022
C         1.24635384047811      -3.81913582283754       3.16241891170521
C         1.27872840859021      -4.71295854060917       6.05262962880992
C         2.06834684414416      -0.63555700092265       6.43981182943363
C         1.43230783264693      -5.32097418369153       2.86540670915022
C         1.47804904802564      -4.54560204732656       7.57236133403806
F         3.72050393128173      -1.34570257398943       4.91931724715309
F         3.52856348866591      -2.45412055361255       6.83641941503473
F         2.02050103935735      -3.15482843573442       2.21689325977444
F        -0.08833074480691      -3.52236262335605       2.92493938282117
F         2.07633102838698      -5.78210563834504       5.68497946048811
F        -0.03981927885880      -5.09122360148889       5.83628142195930
F         2.98356661535624       0.10910779051660       7.16289060170175
F         1.05630161265474      -1.00337099789482       7.30038391742643
F         1.54534587318298       0.18735991280400       5.45817406004104
F         1.20114005200118      -5.53553729730825       1.51720267191469
F         2.72118951809114      -5.73750645817645       3.14283255276424
F         0.52687061842203      -6.09278943468456       3.56596817050546
F         2.82165114389144      -4.57124886174228       7.89559232727788
F         0.87611127675361      -5.60920848405673       8.22199883117468
F         0.90632394522912      -3.38613761388544       8.04676728024323
