42
C12H28ClN optimized with ADF in AMS.
N         0.05279724402430       0.00311026053450       0.08909665656058
C        -0.83961418692289       0.66233678437593       1.11796955409924
C        -0.75729165455882      -0.63055421584911      -1.04050972961219
C         0.86784981435670      -1.08652940063858       0.76543961083972
C         0.96480148147507       1.06345970196584      -0.52611061016617
C        -1.87538691363560      -0.23146400238785       1.78246159531012
C        -1.77458999247762       0.28285729421365      -1.70317457885049
C         1.93215647553449      -1.74992043987910      -0.09049310919817
C         2.02092198569670       1.64662440277760       0.39550183012386
C        -2.73559697522017       0.59745641270867       2.73729869448454
C        -2.26866959729414      -0.39698912640774      -2.98287459277958
C         2.61923407349074      -2.85016756018947       0.71620569242349
C         2.81837857074144       2.69505008678791      -0.38542777544119
H        -1.33778627027068       1.49366530114990       0.59654653562200
H        -0.17191511666417       1.09504374620025       1.87762787684365
H        -1.23806793389935      -1.52609507333260      -0.61629474645172
H        -0.00249605482558      -0.91842061227980      -1.81089613101981
H         0.13889176813201      -1.83831032384076       1.10283295768380
H         1.31369571313743      -0.62556955046051       1.66245998897520
H         0.29199931237753       1.86343547885872      -0.86742585646625
H         1.40471374441221       0.59142574175060      -1.43890156192765
H        -2.51891641052200      -0.70228873012438       1.02218293458302
H        -1.38594168207483      -1.04141209373267       2.34682291638427
H        -2.62257922904680       0.52024528789667      -1.03552297439226
H        -1.29387037212020       1.23098379573158      -1.99284744860411
H         1.50173859486493      -2.15612460451926      -1.01940685077128
H         2.67494799057258      -1.01583920752199      -0.43708986948104
H         1.57556621852087       2.11873925803658       1.28964395751120
H         2.71216299808682       0.86293050954445       0.74603567839367
H        -3.48466622924731      -0.03545433178642       3.23474094153258
H        -2.12112031107269       1.07078955543193       3.51936960810239
H        -3.27156593797491       1.39448520330521       2.19812667736676
H        -3.00723324051963       0.23428073397600      -3.49799438553737
H        -1.41038916070468      -0.56750661589506      -3.65292771914845
H        -2.74172586437843      -1.36813328882855      -2.76534789078906
H         3.39116128623820      -3.33804669349513       0.10353346841936
H         3.10835806710513      -2.45009885649508       1.61990385179874
H         1.90410965538467      -3.62663371956890       1.03374062088723
H         3.60718358114511       3.13317713637148       0.24308340856003
H         3.28560293299504       2.24121587131738      -1.27280170661766
H         2.16532199831408       3.51211853711170      -0.73042751845400
Cl        1.59104810802446      -0.63066178411358      -3.32276534829702
