33
C9H17BF4N2 optimized with ForceField in AMS.
N        -0.04060124216599      -1.31677896274196       0.32333582763210
N        -2.06518520979971      -0.40268783880036       0.22945069770933
C         1.31507495092822      -1.62770639594737       0.77287895722937
C         2.35760669193852      -0.85393283531647      -0.04511890446277
C         2.20235822790587       0.66432327699551       0.12286613311546
C        -0.95147520412203      -0.56364210818034       0.97007978028905
C        -0.59964390902757      -1.65066007051604      -0.85757277850696
C        -1.85507690299587      -1.08173122137397      -0.91671047989636
C        -3.22024404355259       0.42871809321898       0.55753973778134
C         3.30229667999408       1.41799546990833      -0.61767512994634
C        -3.17708336543852       1.72765075419940      -0.23921205113028
H         1.42987420264043      -1.37479469884235       1.85008178972710
H         1.49359278256719      -2.71897844595129       0.66309143372498
H         2.26386697870731      -1.12484018398116      -1.11920748858890
H         3.36968005292484      -1.15838475266125       0.29783570268362
H         1.21945024261576       0.98985682150387      -0.28028861687368
H         2.24664732731532       0.93101565699747       1.20088373932930
H        -0.78881191063642      -0.10383846054709       1.93675955307896
H        -0.12157054300980      -2.24096003064809      -1.62824493423017
H        -4.15669419054742      -0.12458978350690       0.32986912335545
H        -3.21783167976575       0.67239836018184       1.64260157477563
H        -2.55093423776738      -1.13878995327656      -1.74359069629107
H         3.27678706254674       1.17208644377328      -1.70026811128832
H         4.29776247282795       1.15297198586391      -0.20311398796775
H         3.14753047350549       2.51117683366945      -0.49881812923321
H        -2.24772070132600       2.28763568367048      -0.00107774877291
H        -4.05215847226545       2.35796026752611       0.02322941508820
H        -3.20267621175687       1.51342650429977      -1.32836152453600
B         5.04274333284370      -2.95120923957763       2.36553163044616
F         3.73148776829948      -3.40938683571679       2.07312793759931
F         5.76642311458137      -3.98238653815276       3.02100641422075
F         4.96890002760108      -1.81220412887339       3.21079555377573
F         5.70374022113401      -2.60263072289664       1.15763282556289
