45
C11H24F2N2O4S2 optimized with ForceField in AMS.
N        -0.21052608889221       0.31332448272690      -0.17145464128365
C        -0.90990837607031       1.29127174684571       0.72603515618650
C        -1.09215454572877       0.02298172607617      -1.34937653902624
C         0.11628918719995      -0.93331810296580       0.60604778017017
C         1.02907116797075       0.96666964673826      -0.71825568524217
C        -2.32946060086189       0.85800537815507       1.14405167834384
C        -2.49944682148578      -0.47087313952723      -0.97618467833074
C        -3.19522862163874       0.54063717918761      -0.07095943013964
C         0.91993115716068      -2.01251146765095      -0.15974276361955
C         2.13923479885927       1.27896144624493       0.31519856966907
C         1.22915484288126      -3.20132333507189       0.74731112295166
C         3.31206520718915       1.99520681199034      -0.35099939301302
H        -0.33498829370226       1.45422640751042       1.66316234873086
H        -0.99834830239968       2.28434888127613       0.22775242638045
H        -1.22827249940882       0.94606473117941      -1.96092455758811
H        -0.62533547188148      -0.71226159888072      -2.03756387206697
H         0.67440882052014      -0.67039091773155       1.53152975589596
H        -0.80623547500429      -1.42344364264939       0.97339713622282
H         1.47292077227631       0.34315229394366      -1.52624248331774
H         0.75989691059958       1.92650157049527      -1.21827854576351
H        -2.29308892455367      -0.01843150719475       1.82311122339328
H        -2.80347947027966       1.68508459470623       1.71570087644216
H        -3.09716108437689      -0.58828325230653      -1.90612084776229
H        -2.46156995185620      -1.46859380371582      -0.49227985784025
H        -4.17142675281076       0.12971460234060       0.26442558211941
H        -3.39277992827756       1.47566902373621      -0.64009581157283
H         0.33924602052865      -2.39556193079187      -1.02284964165933
H         1.88600791366467      -1.61182721157851      -0.52675218182046
H         1.75771242590220       1.93534305163629       1.12278107026985
H         2.53211464717076       0.34597452769216       0.76808931264105
H         1.80014719132660      -3.96572486107758       0.17911210276687
H         0.28738483837729      -3.66331507435114       1.11332816352294
H         1.84055795560897      -2.87629190435309       1.61602575405736
H         4.10011380701796       2.20230355999328       0.40339793004743
H         2.97788100226355       2.96060765111564      -0.78745514767038
H         3.74739576342206       1.36110821002737      -1.15261691178362
N        -1.97800741220251       2.54057812974950       5.05640054978301
S        -0.60606684615335       3.21277422376146       5.64174809275017
S        -2.20503353199901       0.92081933081740       5.08274830009046
F         0.65861848486843       2.89308726736343       4.59196325692062
F        -2.25721317144092       0.39094002332165       6.67035465120325
O        -0.78748997552990       4.69882286604086       5.76755484503271
O        -0.28213317867052       2.62703684038983       6.98730137427746
O        -1.06590008510806       0.23754592335253       4.38010843189823
O        -3.49895781577501       0.58206995873254       4.39873215863295
