37
C11H23NO2 optimized with ForceField in AMS.
N         0.25528981647477      -0.12131402413272      -0.18516215728576
C        -0.60871965748682       0.68441733938039      -1.10865785609948
C        -0.50963794918163      -1.33305948128061       0.25759546350472
C        -1.97366217715828       1.07213303486747      -0.51405763537218
C        -1.88694110963976      -1.01516491898142       0.87416790012412
C         0.68021205561577       0.67260511863785       1.02055231493383
C         1.44068178737871      -0.57267447586715      -0.99251469179434
C        -2.73610290499762      -0.17236952077257      -0.07178151244630
C         1.55664697631596       1.90562490411634       0.73461815950822
C         2.51614518346841      -1.36244685561417      -0.22253000864442
H        -0.81601198723390       0.10586006002514      -2.03952734265205
H        -0.09227179853552       1.60587081929762      -1.44931150360251
H         0.06050703069094      -1.90795643405614       1.01881823925263
H        -0.68110885021788      -2.02153279337118      -0.60204066099315
H        -2.56996223194310       1.59838401181188      -1.29090360181007
H        -1.85644304013808       1.77847675806659       0.33316560428068
H        -1.77586285302870      -0.49870007180758       1.85011988152513
H        -2.41950078410192      -1.96933706612097       1.07758806076418
H        -0.19455002854615       1.03714110610357       1.59282802284898
H         1.22795285946822       0.02476473792931       1.73894370705984
H         1.10772070138040      -1.22008767844183      -1.83640139217351
H         1.93898243585342       0.29420680791653      -1.47987167796943
H        -3.67424318834488       0.12872721564898       0.44145004043830
H        -3.01041489920064      -0.77783992649306      -0.96383072324660
H         1.82326605479094       2.38389044691136       1.70086180627558
H         2.50713788807228       1.63531351371713       0.23434098854307
H         1.01344057896190       2.66457631519536       0.13793317646253
H         3.31490186077011      -1.66213231953268      -0.93345034794305
H         2.99708058376312      -0.74713902252917       0.56357158768416
H         2.10713021881491      -2.29191461906521       0.22009598507836
C        -6.21249785212174       2.42725863446218      -0.79175819988725
C        -6.79018637771006       1.97092917263548      -2.09427787767073
O        -7.52067489521504       0.99420462944495      -2.12793688028079
O        -6.53483362619755       2.57220970434651      -3.12548127813753
H        -7.03346168465593       2.69039584869333      -0.09177473050326
H        -5.60284013622563       1.61230826092891      -0.34899334232998
H        -5.56634511013903       3.31909309362959      -0.93957511864195
