45
C13H23F3N2O3S optimized with DFTB in AMS.
N        -0.94546525012130       2.10149956895203       1.26024708127895
N        -2.73845390273733       0.91390246133000       1.25892319124885
C         0.24143396620136       2.80404749113306       0.78619889882163
C         1.47049049416198       1.89406244680336       0.84354913357246
C        -3.86380185702574       0.11667564422271       0.78221139295020
C         1.34177958856145       0.68668349218135      -0.08955517417051
C        -3.51829840723685      -1.37400587876450       0.78596769927855
C        -1.75514493409667       1.37743520527545       0.49134854951700
C        -1.41339434705024       2.08947224101404       2.54578135423318
C        -2.54763191575764       1.34042866549706       2.54444988064082
C         2.61104454752056      -0.17039140348326      -0.07578964287384
C        -2.41055778393962      -1.71500737379052      -0.21582153818308
C         2.45915222090207      -1.39115072972628      -0.98143208844662
C        -2.16930219834483      -3.22124134040409      -0.28663302725732
H         0.38548777184750       3.67984404660769       1.42317502982269
H         0.03830789297540       3.13051517317264      -0.23748764824507
H         2.33690116268140       2.49380397433773       0.55067283241813
H         1.62560966538775       1.55519660879226       1.87304291840884
H        -4.71179927931695       0.31434938699506       1.44152717082881
H        -4.10064149408545       0.45840449268989      -0.22954648064335
H         1.14326231260488       1.03393406179458      -1.10858230532327
H         0.49149029224975       0.07221221950173       0.22657549688729
H        -4.42896702723988      -1.92001689365987       0.52331881738818
H        -3.21980633287992      -1.67924703570717       1.79417026746636
H        -1.66708912105069       1.23893307671063      -0.57223082273369
H        -0.91776419548124       2.61726230093114       3.34158146190987
H        -3.22953691891921       1.09073673551452       3.33815926475207
H         2.81786270230628      -0.49844155993563       0.94872505884825
H         3.46099067761184       0.43180003778479      -0.41293415071789
H        -2.68865126228109      -1.33944122229432      -1.20550763925447
H        -1.48220580534080      -1.21675139543343       0.08420942794926
H         2.26942147595379      -1.08207303671860      -2.00990503731177
H         1.62761586888153      -2.01363108271860      -0.64729981238421
H         3.37091255059898      -1.98802057755711      -0.95979110058599
H        -1.87824291494468      -3.60910248807210       0.69065333121810
H        -1.37145430955269      -3.43506887924041      -0.99767774063005
H        -3.07271874642162      -3.73842581145132      -0.61145306874551
S        -3.00453139678075       3.03967114121246      -2.03908235236750
O        -3.42122103039843       1.65258794456680      -1.84834175348513
O        -3.31694913750501       3.61645896480444      -3.31549584673495
O        -1.65867987710993       3.30160172875964      -1.53798725991032
C        -4.06809108792302       3.93993141565511      -0.80909517542281
F        -3.81875464772595       3.44672011862232       0.42077423223056
F        -5.36247873931978       3.76942674511862      -1.04656985199705
F        -3.81185712775926       5.24052554427612      -0.77541278954565
