34
C10H21NO2 optimized with ForceField in AMS.
N        -0.36678769360984       0.36108429470554       0.05209244329132
C        -1.42019610856480       0.63095052591622      -0.96151962911368
C        -0.82068250781432      -0.86222938691171       0.77622423913784
C        -2.69792339590862      -0.01445297044291      -0.46764253936454
C        -2.21357862663308      -1.23217360048956       0.27635815432317
C         0.94099040521547       0.14367128459375      -0.63870173616796
C        -0.28742455981885       1.51943891346596       0.98101223861902
C         2.14234151177027      -0.04729446133565       0.31659098742349
C         3.36279027718586      -0.57441156558717      -0.43304050030528
H        -1.17370925581976       0.16737167019601      -1.94563275447907
H        -1.57683846451982       1.71838256840486      -1.14967677498728
H        -0.86401519597482      -0.70755330349079       1.87924532841231
H        -0.14865547048660      -1.73429555707077       0.60973102018829
H        -3.37515546782513      -0.28665819449770      -1.30632582814308
H        -3.22498873052990       0.67151369866039       0.23131393847990
H        -2.89768289865198      -1.49654790713375       1.11157943080044
H        -2.14392426552959      -2.09173588144907      -0.42760438809928
H         1.16633197866046       1.00877943034686      -1.30424950571206
H         0.86788514866806      -0.75202724280556      -1.29919240927076
H         0.10505737146180       2.42102389840137       0.45946795019238
H        -1.28927606425184       1.76998121653073       1.39623225475506
H         0.37518924633092       1.30277731192414       1.84671101674174
H         2.41597663053291       0.92648821887462       0.77625220847862
H         1.89565017266912      -0.75967175134660       1.13109343147514
H         4.21700874504477      -0.67371815856521       0.26885574644787
H         3.14637869406572      -1.57383229735751      -0.86740979808074
H         3.64885400203655       0.12593589579996      -1.24648170129176
C         7.45779838321152       2.23213267259306       0.73879666478913
C         6.81111668080822       0.96700108685378       1.20758042626952
O         5.91838019769728       1.00333762642206       2.03947535676036
O         7.17529444335301      -0.10673860488779       0.75651773033211
H         7.05422766353862       3.10772487066020       1.29126873117691
H         8.55394847797391       2.17715737037168       0.90789853288264
H         7.26271083151452       2.36999204885058      -0.34547541876179
