43
C11H17F6N3O4S2 optimized with DFTB in AMS.
N         2.28922200180266      -0.25916841573062      -0.67772615821186
N         0.42871973217332       0.40937972189230       0.19071958692188
C         3.45541195810255      -1.13115202592316      -0.87037262043881
C        -0.75302337676736       0.46723240342616       1.04535421091716
C         1.23757440056446      -0.63838304365732       0.05028689090669
C         4.61651567037361      -0.45653900765089      -1.59150378574467
C        -0.35758093862628       0.86473963266810       2.47693668223896
C         2.16687148299397       1.06926541384839      -0.97159367616425
C         0.99488660793655       1.49071094544180      -0.42683939187411
C         4.38168979403856      -0.29290418064710      -3.09161829995614
C         0.17878470039252      -0.30996794735563       3.28850692842417
H         3.11674342315515      -2.01829296326252      -1.41618297423264
H         3.77643410464000      -1.43402566083746       0.13048508280683
H        -1.23932184556978      -0.51207887185801       1.02574117401435
H        -1.42931623475533       1.20991546036002       0.61441183932964
H         1.07575289506232      -1.62197034372400       0.45485571737965
H         4.82759928534879       0.50864889510366      -1.12461386830844
H         5.49321023113000      -1.09268509267790      -1.43695602251397
H         0.39556913251920       1.65471903727352       2.42688142683603
H        -1.24786489870376       1.27339070325348       2.96373117460014
H         2.91481920070117       1.62525389529264      -1.50544797052487
H         0.53389485480390       2.46244031207240      -0.41814832080501
H         3.48816622288004       0.29906446892081      -3.29181474723799
H         4.26145070499951      -1.26758109049202      -3.56710291194948
H         5.23706651902554       0.20948207394153      -3.54217608628093
H         1.01697965338297      -0.78014782287536       2.77767841100178
H        -0.60070248204818      -1.05588727856053       3.45053604631366
H         0.53572282920917       0.04915451052700       4.25301364749919
N         4.97457163123832       1.06566128350711       2.99269496299167
S         3.83844500524749       1.46914151383844       1.96425455051962
S         4.50306779030828       0.03160436931015       4.14665815425521
C         3.00430082178465       3.04329261623701       2.55187149267442
C         4.36185063313786      -1.63082921050013       3.26725752020060
O         4.44449382486223       1.88337755763580       0.71484542063782
O         2.72655904641009       0.53242804481753       1.86282433519462
O         3.19137210125789       0.26605551279058       4.69761234872055
O         5.61096921371741      -0.13054302139114       5.04199165962118
F         2.13899522318110       3.41240576750308       1.59929947214787
F         3.87710897754861       4.01767925081828       2.72705894586323
F         2.32578598774835       2.85806325433575       3.66860449981656
F         4.98854242767327      -2.56635763174876       3.95764743504177
F         4.91190096692453      -1.56880550864951       2.05260183421082
F         3.09367075179464      -1.99747474097345       3.11743048035708
