25
C9H10F3NO2 optimized with ForceField in AMS.
N         0.15196268965541      -0.00031193212056      -0.36298868239964
C         1.59526465477244       0.01215550793895      -0.63022336474539
C        -0.52305078051517       1.18243532027644      -0.22740710323395
C        -0.50653879167523      -1.19297601540696      -0.23400512861218
C         2.37613811175792       0.04204430899150       0.67851669414039
C        -1.89454422065355       1.19013233694106       0.03816480551505
C        -1.87801167376967      -1.22057685422421       0.03169009778080
C        -2.57375686841197      -0.02021099119650       0.16736254337456
H         1.89281373827236      -0.88656310934220      -1.21513677737308
H         1.86892830150218       0.90000269847855      -1.24259041116064
H        -0.00173376959312       2.12804863345033      -0.32025286932937
H         0.02762699839683      -2.13089854635763      -0.33126970222770
H         2.08049585666838       0.92639387575973       1.28133698326986
H         3.46306428906016       0.10583585037564       0.46198474315836
H         2.17679010445957      -0.88185278661991       1.26201959611506
H        -2.42506459021210       2.12755028322072       0.14448073491048
H        -2.39599332123947      -2.16546953686176       0.13325959852484
H        -3.63610696823697      -0.02781543842837       0.37391356860518
C         4.24292482378158      -3.76245895462940       2.66618582416387
O         3.78509996927132      -3.78016819178027       3.79779089742584
O         3.81093962310204      -4.53861634010982       1.82878332758461
C         5.33031261352068      -2.79674834840304       2.29928924140623
F         6.45059619394105      -3.49552850721548       1.88966541929470
F         5.66453625382726      -2.00387656915009       3.38358900883979
F         4.89923905411806      -1.98740607498673       1.26582119797234
