33
C7H16F2N2O4S2 optimized with ADF in AMS.
N        -0.52835714938180       0.40587799000443      -0.12666852803869
C        -1.35241941706948       1.41604195081529       0.66322261483842
C        -1.42672404979846      -0.74610806700096      -0.55738347299604
C        -2.06478080300055       0.79044444037727       1.84895074095987
C        -2.13112273271370      -1.40470837506606       0.61597406307008
C        -2.94235125162406      -0.38354731424243       1.41473016175012
C         0.61976543986713      -0.08843849959499       0.69070051065736
C         0.00791036632490       1.07338473195920      -1.35890948248359
H        -2.07430103763571       1.83796888172550      -0.04808135793313
H        -0.65841138365429       2.21727514979789       0.95903314352420
H        -0.78415893272191      -1.44663166123933      -1.11291356386525
H        -2.16312826810060      -0.30937785362668      -1.24922761449633
H        -2.68575496314801       1.58509748043445       2.29393583967844
H        -1.34520585615758       0.48142235101547       2.62789868754108
H        -1.41089399966757      -1.93596784154742       1.26312081829930
H        -2.79816154292969      -2.17282573916003       0.19169844796305
H        -3.39797608935871      -0.86393361927050       2.29495263800716
H        -3.76318029996165      -0.00778058764309       0.78225877729259
H         0.25578186387602      -0.55344913565354       1.61107846974192
H         1.17811704802276      -0.82340268996966       0.09676393334345
H         1.26517319581255       0.76566459660009       0.93367650643323
H        -0.83394818803999       1.32939944920016      -2.01229298410004
H         0.54242956208839       1.98433919359152      -1.06205420781959
H         0.68727052349772       0.37343635216711      -1.86212613219147
N        -2.97959357516851       1.90200260143521      -2.48122427853770
S        -4.36465271598481       1.56364477370557      -1.73138965965748
S        -2.51638869704264       3.42749392839776      -2.74432473741098
F        -5.52702067028909       2.02203645965579      -2.78408508106167
F        -2.04919672395074       3.92059585267134      -1.20563578475887
O        -4.45534947343205       0.11177312209347      -1.67591606338867
O        -4.62109710829279       2.33726617444231      -0.52699054629580
O        -3.55529008352926       4.36291506041211      -3.11009823204312
O        -1.25201689003584       3.35680318171278      -3.45291366902184
