39
C9H16F6N2O4S2 optimized with ForceField in AMS.
N         0.16215234549255       0.29267748322546      -0.08310459524761
C        -0.44034264725708      -1.00940058033368      -0.48181735348720
C        -0.93953422245761       1.06327326649279       0.56962314673315
C        -1.94674804428003      -0.85728003451572      -0.42835891578471
C        -2.16060986616690       0.16315750615819       0.65738555517284
C         1.27927110321516       0.10386996580318       0.89267732686260
C         0.63454021496569       1.03167859470427      -1.28290976500651
C         2.46378240547319      -0.72555024840154       0.36660366356285
H        -0.17218289197368      -1.82267130031270       0.23120895434787
H        -0.12167927397632      -1.34661354741906      -1.49493966586498
H        -1.22563311099284       1.97237772539570      -0.00985321115670
H        -0.67812571710877       1.42832865765047       1.58986461312652
H        -2.45002634808354      -1.82036763414386      -0.19211378109166
H        -2.32303820297292      -0.46385465734353      -1.39839086604432
H        -3.10542276909604       0.72941755001111       0.50807800906881
H        -2.18183439493663      -0.34335644904455       1.64826567095442
H         1.67366992483159       1.09281385867266       1.21555576979423
H         0.89884794151388      -0.39685228995497       1.81262616704389
H         1.38090564022472       0.44563379074486      -1.85961337953890
H        -0.20881658532921       1.24224336174972      -1.97877900608554
H         1.09593497566064       2.00259260625609      -0.99407094969519
H         3.17837358523366      -0.89641351424262       1.19957795307131
H         2.13809389641609      -1.71666966826423      -0.00905096823513
H         3.01124597704209      -0.18548265852650      -0.43189042914323
N         3.97540904886622       5.84302777048327       0.97988489439049
S         2.62905826649349       6.10684024319086       1.87839504968423
S         5.08926950279130       4.69816373865356       1.35254348487553
C         2.97365589636968       7.36863333026960       3.08720773869556
C         4.78353732774775       3.25067161984505       0.36286858735838
O         1.52193383614802       6.58613377204162       0.98235671506641
O         2.19929055554682       4.84546435835782       2.57484949779826
O         5.01819812024578       4.33663404705973       2.81026946787564
O         6.46155670522763       5.21985363549742       1.03191087026125
F         1.83932405096494       7.62020826647272       3.83516556462747
F         3.36350340155268       8.52791963245589       2.44401250325710
F         3.98898343251277       6.94582776182242       3.92299100014942
F         5.68807319179729       2.25903805932943       0.69148459480356
F         4.91866554986371       3.56934737909039      -0.97474226077061
F         3.50116433673425       2.79752139836869       0.59650827037050
