31
C7H13F2N3O4S2 optimized with DFTB in AMS.
N         0.74935696302151      -0.34667630485423      -0.32572441168917
N        -1.33367964422666       0.16234110608561      -0.51659562813500
C        -0.38773602318328      -0.67325797102317      -0.93448622007282
C         1.99761286954558      -1.10314085553395      -0.41643445747264
C        -2.75539321364825       0.04403218824077      -0.83331501961189
C         0.52052377702472       0.71327911497517       0.51195084553448
C        -0.79484653713773       1.03122652901466       0.39378008855108
C         2.35720053242424      -1.68206504545003       0.94711967702751
C        -3.45525103646777      -0.73925776832991       0.27182675606332
H        -0.52241942268921      -1.46201674439501      -1.65421115301174
H         1.84073821082279      -1.90667793161772      -1.13965066679396
H         2.78188480346593      -0.43318802685483      -0.78179234409699
H        -3.16701411004985       1.05251965782421      -0.93039929135786
H        -2.84072577498980      -0.47662241651219      -1.78917600488516
H         1.29898028714085       1.15135477661046       1.11128512680236
H        -1.38113853220557       1.79656891076752       0.87141395871282
H         2.59403008557566      -0.88977704161514       1.65642620383690
H         3.22352476878340      -2.33121593748038       0.83400134586470
H         1.52655869673501      -2.27030370169773       1.33281827763974
H        -3.00296488484535      -1.72443958614938       0.37289737675711
H        -4.50526933225723      -0.85941111293901       0.01102472400480
H        -3.37833074768370      -0.21181286615702       1.22220427247184
N        -1.00353620817461      -4.51755839054205      -1.53984626687805
S        -0.36708880861271      -4.03568833138419      -0.17261722558290
S        -2.46230826533121      -4.00137897836449      -1.88623167765214
F        -0.81646814804455      -5.17159629941611       0.87710603470147
F        -2.12259626381339      -2.47436492311764      -2.47657817544316
O         1.05377579443103      -4.17991997740428      -0.26869743275168
O        -0.86104920580596      -2.81143181519637       0.40903157108796
O        -3.35674798401587      -3.72447151001635      -0.80843922434799
O        -2.92941772218803      -4.69199934266723      -3.03495283937292
