65
C19H25F18N2P optimized with DFTB in AMS.
N         2.42455852673360       2.05062802697921      -1.61173159658362
N         0.47371685069117       2.85738343662505      -1.18985758486393
C         3.50540257916116       1.35255910689316      -2.30404661449109
C        -0.93991220481650       3.18216604227201      -1.36087218315594
C         3.54323378944643      -0.11169164661774      -1.85217121961232
C        -1.76398893600388       1.89304043044776      -1.44520279318466
C         2.26977972759682      -0.86832307858261      -2.24144518415573
C        -1.62227130351637       1.00768004168659      -0.20501925825153
C         1.25812680084768       2.38362150560599      -2.15566604515565
C         2.38583828145928       2.31427767730055      -0.26895483635569
C         1.15258873201143       2.82125950975327      -0.00228889832920
C         2.25271769778399      -2.28542873271602      -1.66254870679260
C        -2.37428978903836      -0.31369186898829      -0.39805164724873
C         0.97356673133922      -3.01697894959639      -2.06582374787497
C        -2.19208696208338      -1.23700464224265       0.80439288246617
H         4.44565700053136       1.85566266644779      -2.06446938628495
H         3.31406022070307       1.42441467755529      -3.37600628877388
H        -1.04313928819183       3.75503381656221      -2.28593670533646
H        -1.24730710805552       3.79889294963188      -0.51293070172763
H         3.68726857649513      -0.14859093886149      -0.76713829823598
H         4.41173522878621      -0.57960125531093      -2.32379841915541
H        -2.81025800960428       2.17819841331742      -1.58408629438809
H        -1.44920030137532       1.32937105577385      -2.32542244925974
H         2.20076966264541      -0.92232368212427      -3.33018775430699
H         1.39354772542772      -0.31996457948944      -1.87898885963526
H        -2.00760646199129       1.53332461202094       0.67564429952084
H        -0.56228520939980       0.79238538692176      -0.02923514624798
H         0.99972054350252       2.30821378934176      -3.19613728460821
H         3.22506742611606       2.12679704406447       0.37753319489684
H         0.71349379462404       3.16131120240144       0.91908007457238
H         2.32053656381081      -2.23764570260537      -0.56966383534166
H         3.12303789702006      -2.83982860274182      -2.02877090179370
H        -3.43926147534455      -0.10907378366356      -0.54672504328138
H        -1.99895949911653      -0.81066039032924      -1.29847469426789
H         0.89733532184654      -3.07952617062179      -3.15163159147184
H         0.09718428753410      -2.48811935699298      -1.68834201104137
H         0.97447970307795      -4.02715452905294      -1.65632737263925
H        -2.57150133861513      -0.76563539979034       1.71221448732917
H        -1.13628338491775      -1.47115800444632       0.94948250958612
H        -2.73478397252878      -2.16824312967029       0.64314753454530
P         0.96761151929510       1.09149058916485      -6.19103774157040
F         2.16000324498373       0.06218272014707      -6.71119516142442
F         1.39153473267763       0.82268333156434      -4.53841312032512
F         0.54005778820353       1.42299839934982      -7.76269869893783
C         2.39468882542691       2.43855163299353      -6.15148001758360
C        -0.20452316879105      -0.51820570982901      -6.05577243643069
C        -0.55495864778678       2.31319274518682      -5.61283746366375
C         2.92493601932311       3.05694106451639      -7.46985271680304
C        -1.18366046105980      -0.76992568473834      -4.86196846104336
C        -0.64761011061819       3.86689342543592      -5.62036902301511
F         3.47359274873420       1.89160766807427      -5.54891506457821
F         2.00919973807416       3.45451594397309      -5.34228751350297
F         0.61232154781508      -1.58769811435986      -6.00499431900630
F        -0.94347121440232      -0.63569811519192      -7.16831287369957
F        -0.86457573760418       1.99857010345683      -4.31756924774249
F        -1.58861406692338       1.88836643816450      -6.36165280292154
F         3.90400999774465       3.92689806963127      -7.20237887859268
F         1.97410129256618       3.70582891335982      -8.13105833355323
F         3.41994376861107       2.11208797940464      -8.25950031991287
F        -1.51549468257592      -2.06270353503218      -4.84242557114452
F        -0.62289660045315      -0.50001298968707      -3.67279466798041
F        -2.31006421793298      -0.07474174058586      -4.94372144198899
F        -0.14631596056232       4.35559139204646      -4.47175090872483
F        -1.92257534810237       4.25035191257056      -5.67408499595906
F        -0.00784895473542       4.43163033362603      -6.63150063255843
