31
C9H19NO2 optimized with ADF in AMS.
N         1.23881538798178      -0.22917779451004       0.66835089350403
C         1.13864633511990       1.26510880444904       0.38042406864124
C         0.78435528232125      -1.00412670283347      -0.56092364532936
C        -0.24261805888008       1.67896074092351      -0.09571336872975
C        -0.61751258664293      -0.62513827511749      -1.00542521556575
C        -0.67293082135026       0.87051470791153      -1.31977037326825
C         0.44159247871610      -0.60084907809537       1.87038511626972
C         2.68695728053323      -0.54771260925528       0.90169562090862
H         1.92158440025596       1.44334459077714      -0.38687973027333
H         1.42877377295170       1.77328264423666       1.31410023397060
H         0.88209124962982      -2.07130837358257      -0.30617078944326
H         1.48994668750618      -0.70521865227238      -1.37387074583074
H        -0.17754361829237       2.75119742432644      -0.34690232402316
H        -0.99186308381783       1.59279587225246       0.71335622046604
H        -1.38998546964384      -0.91103777562225      -0.26696792726842
H        -0.82018132854640      -1.21058923681914      -1.91826764910734
H        -1.68525871312276       1.16572700752534      -1.63936695265274
H         0.03408999233396       1.06377474552037      -2.14570176164608
H        -0.61441967051149      -0.36590058539811       1.70529878707081
H         0.56015594393172      -1.67742360171315       2.05133666667931
H         0.81858896461815      -0.03228976910574       2.73080615571388
H         3.24386919717542      -0.16336900460947       0.02109742167692
H         3.01054614577097      -0.02387601966901       1.81161259063837
H         2.78541929497646      -1.63387143689112       1.03031898121249
C         4.01728162681688       1.53144061372661      -3.70082269836938
C         3.19174151443217       0.94039908006395      -2.55307313868825
O         2.13966663977647       0.30276163610580      -2.85976017380353
O         3.62648333445360       1.16104227241434      -1.37470248589465
H         5.09137378531104       1.41427684359468      -3.49673206562607
H         3.75426983289499       1.06450010225562      -4.65944139694939
H         3.81490504580019       2.61248091031111      -3.76946033238258
