40
C12H22F3NO2 optimized with ForceField in AMS.
N        -0.55764260483588       0.30649249203512       0.15252173043609
C        -1.55557227595784       1.23849473112098      -0.46371505816234
C        -0.89071674399558      -1.10995451260581      -0.19185138948887
C         0.77910848283118       0.66881431013608      -0.42696088009888
C        -3.02449212608737       0.88810555157157      -0.16000980926500
C        -2.34033157946601      -1.50029699284023       0.14326831111357
C        -3.32752521513956      -0.55790085996044      -0.53483235195737
C        -0.52791221803962       0.50169576719310       1.62835051918954
C         1.98561858497702      -0.13963812364776       0.10956552233744
C         3.28561094472920       0.31665646205045      -0.56514384018010
C         4.48124971468164      -0.48410410156166      -0.05792043299889
H        -1.44764729164439       1.23985914222079      -1.57358979837485
H        -1.37176967916812       2.28517027181379      -0.12801931103918
H        -0.23184866265679      -1.81832210190161       0.35558437873737
H        -0.73024996511481      -1.29060972997766      -1.27997235691900
H         0.98935864905124       1.74855795381014      -0.24404137924698
H         0.75841385250545       0.54127662120314      -1.53444632427153
H        -3.68397010805267       1.55624269239083      -0.75518381350559
H        -3.26996944418469       1.06863080955118       0.90691033637070
H        -2.50196073776818      -1.49736762983718       1.24229946393339
H        -2.52861554721555      -2.53557848148654      -0.21470409174364
H        -4.36186225339549      -0.81407927020753      -0.21919977577346
H        -3.26168656627017      -0.67930420746176      -1.63872005161027
H        -1.53253545279007       0.42245008800586       2.08598842624127
H         0.09125782751396      -0.27150226296806       2.13044212572699
H        -0.12407699746788       1.50450618731809       1.89187232679630
H         1.85142642155794      -1.22029446118184      -0.09704422420840
H         2.09743891254906       0.00931610616238       1.20330069699788
H         3.45963125461738       1.39423029032194      -0.35312454377514
H         3.20661855804255       0.18249948129112      -1.66607604549974
H         4.35322473301668      -1.56095309654108      -0.29919539427267
H         4.58849472069648      -0.36369964897207       1.04127079458571
H         5.40801640849505      -0.11740031641860      -0.54723763112284
C         2.22067095366430      -3.41581511077952      -3.01250961000161
O         1.64753736833949      -3.26040888198787      -1.94582590372599
O         3.42890703174324      -3.58898416255166      -3.02788472302686
C         1.45090472008597      -3.40148323669414      -4.29970621018278
F         1.95972681915247      -2.42168585346079      -5.13222965522792
F         0.11211558994700      -3.14087450226901      -4.06332645559127
F         1.56784617045340      -4.63142916138371      -4.92073117849507
