47
C13H25F6N2P optimized with ADF in AMS.
N         0.82514132870644       2.51469351969992      -0.00598378549244
N        -1.33618281347538       2.67951059262100      -0.16253804292950
C         2.19163349594923       1.97844490651858      -0.10559767783559
C        -2.74181995178527       2.47765134259380      -0.56358132757096
C         2.42547095042130       0.83772876921086       0.88682580574948
C        -3.03171172498090       1.09705417050783      -1.13769511868901
C         1.82965133781268      -0.49573552392722       0.43949387505226
C        -2.80400189041071      -0.04476851957735      -0.14866878199051
C        -0.25523071887027       2.06599797512349      -0.66400542097533
C         0.41708150275790       3.42542963129870       0.94335078981320
C        -0.93665715577419       3.53031211908548       0.84225548996212
C         1.88995294595585      -1.55904155335386       1.53672157667071
C        -3.34939830047422      -1.38571695951237      -0.63409382556639
C         1.29521388484473      -2.89096539628776       1.08732903755227
C        -3.08250716239154      -2.49833027723181       0.37854649934160
H         2.86673438913890       2.82817577883376       0.07930468089887
H         2.34570210525457       1.65125191776245      -1.14552408222308
H        -2.99737784728474       3.27685565726790      -1.27877169844044
H        -3.32352538501796       2.61999515170775       0.35855707096127
H         1.99688427016202       1.12225897979614       1.86354301521422
H         3.51636756307279       0.73432984747715       1.02492368013947
H        -4.09655982661889       1.12115043705128      -1.43524083496625
H        -2.47199277258634       0.93810991924084      -2.07963087329380
H         2.35943498485041      -0.85229422035093      -0.46594954916740
H         0.76858246714101      -0.35432809100963       0.17024962534636
H        -3.27059133381696       0.21299463368674       0.81726255455772
H        -1.73284544451345      -0.14967547847502       0.08641154149025
H        -0.25063784409822       1.32497591992327      -1.45024958284015
H         1.10636656469118       3.86247640341868       1.65362272618452
H        -1.64990570650625       4.07241563240764       1.44862381145252
H         1.33587243164573      -1.18248518230230       2.41316754338584
H         2.94059150393568      -1.70227321246656       1.85152612690008
H        -4.43794418342691      -1.29420950888857      -0.81021741580622
H        -2.89788142947541      -1.64683052945881      -1.61046775840953
H         1.82865340386658      -3.29847685637539       0.21224420092387
H         0.23628673532740      -2.76616803814809       0.81377123725434
H         1.34044428362859      -3.64133166322341       1.89140638378720
H        -3.50602155417099      -2.24034367573384       1.36129277178020
H        -2.00163370100907      -2.64166303761238       0.52536972298207
H        -3.51317152268076      -3.45759834693414       0.05368105350669
P        -1.26858812558667       0.92803375457283       3.41772156448057
F        -2.17553947715927      -0.41629426312471       3.12241036855930
F        -2.43394883329351       1.86644431542418       2.65463428882008
F        -2.00827641568742       1.16138033596797       4.85525378447079
F        -0.34753336340912       2.29432663989157       3.64380367051974
F        -0.09133306353321       0.01081935009661       4.11483622981789
F        -0.51864927302537       0.71926181160771       1.92732548082113
