64
C18H26F18NP optimized with DFTB in AMS.
N        -0.72116922542161      -0.26044116972903       1.39196288981282
C        -0.44589704156679       1.14318284979586       1.85573859645102
C        -1.44247772465059      -1.04219123084288       2.45949458473936
C         0.57345484171027      -0.99942335716027       1.14110667546410
C        -1.67296728415847       1.85019438319308       2.41814966449344
C        -2.68492753923964      -0.34466568511760       2.99226775653075
C        -2.31937708502615       1.03449798508578       3.53363987986578
C        -1.52123110029093      -0.23790879300470       0.14120147602937
C         1.60055681226841      -0.27855802571452       0.27459913926871
C         2.90032382466672      -1.09572111517662       0.29816718653632
C         4.03515695937092      -0.35726253091813      -0.41595842045745
C         5.34460144455268      -1.14691512554558      -0.31760731463499
C         6.49102674038879      -0.41222310875202      -1.00996915247156
H        -0.05844079305097       1.69852626026746       0.99969452216219
H         0.32589330004580       1.08177527073588       2.62154642289714
H        -0.73670130999037      -1.18494784358107       3.27844207918090
H        -1.68804670637165      -2.01629798490281       2.03044318092262
H         1.01614919766375      -1.18939721289890       2.11757955673562
H         0.30207007869642      -1.95909934424017       0.69359419021776
H        -1.33011154376787       2.81081881357615       2.81064007023189
H        -2.40102458003143       2.05090219749339       1.62561681069419
H        -3.45480057325912      -0.26207792863748       2.21890438141934
H        -3.08092443524638      -0.96941287253091       3.79677416181967
H        -1.62224391488943       0.93059783790166       4.36965891763944
H        -3.21581240284342       1.54437760647382       3.89293413973981
H        -0.96470710770991       0.29531343392023      -0.62683802808078
H        -1.70622708667176      -1.26153418482076      -0.17993450514359
H        -2.46754194167744       0.26612587479026       0.32083427093116
H         1.24441817233089      -0.16553818168127      -0.75357756396210
H         1.81121787088805       0.71494835020400       0.67680285500128
H         3.18694603323955      -1.27568318400575       1.33961561790714
H         2.73136365267138      -2.06794689536153      -0.17608011292972
H         4.16970541633247       0.62852980299516       0.04183770572580
H         3.77100062355483      -0.20490606475419      -1.46832683845448
H         5.21115917404582      -2.13223323341844      -0.77713384419897
H         5.59431696551096      -1.30098823030049       0.73738048255157
H         6.26723472333646      -0.26296232521008      -2.06730834280616
H         6.65375706583355       0.56236236450970      -0.54819328505458
H         7.40924872080947      -0.99360285550020      -0.92737556558805
P         1.54507046079871      -0.15989310016194       5.60036349252646
F         0.01175306340853       0.40868455711499       5.98224066100402
F         1.11888278537312      -0.26523799719506       3.92778909420230
F         1.99144561063721      -0.06391372323796       7.19512180897732
C         1.91429403672734       1.73622482204692       5.23531488417275
C         0.71769139410375      -1.97407350118635       5.79539596125396
C         3.34903632519290      -0.93075032512598       5.17299784542112
C         2.05153159548726       2.72831032680429       6.41868481238976
C         1.06948821094496      -3.21696893914579       4.92080448683076
C         4.71559177234945      -0.18993895073515       5.11598675458303
F         0.89462066382867       2.21737536279850       4.47975359037345
F         3.01833169329123       1.85226067547776       4.47369715662945
F        -0.59745749763175      -1.81050370497223       5.48403293777479
F         0.77249678428493      -2.37095051122321       7.07145299582485
F         3.25469668135147      -1.58912461544520       3.99202474100386
F         3.49115173659836      -1.86781485108961       6.13404209696263
F         2.22164017064782       3.96977244462648       5.95314549913554
F         3.09022923118845       2.43609843173796       7.19052380365719
F         0.95289146326741       2.72208775340227       7.16650653686838
F         0.16117108681492      -4.16853257420903       5.15695847189531
F         0.96277031573020      -2.90604411965541       3.61366160606633
F         2.26023122371157      -3.74814497414741       5.12256064553514
F         4.92938969314784       0.32187834608290       3.90430485564386
F         5.70705536236935      -1.04556942196111       5.36573407718193
F         4.78830624772298       0.78739240036235       6.01294704359911
