48
C14H25F3N2O3S optimized with DFTB in AMS.
N         1.32797838067128       2.36775546481145       0.51639711178539
N        -0.79722996659113       2.70594796949472       0.58500001302416
C         2.69588531723271       2.28299519735899      -0.00000476687539
C        -2.16211249192804       2.99333584931991       0.15041132570394
C         3.31523368753683       0.91219100745223       0.27833443943355
C        -2.61191690710779       1.98125606206573      -0.90801010459202
C         2.51954936920434      -0.22885697748774      -0.36250493252195
C        -2.51064202786988       0.53482365179609      -0.41715190954025
C         0.29105758154421       2.83492798852148      -0.17250483551441
C         0.89247629677786       1.91634669272041       1.73424782553273
C        -0.44952660403262       2.12224939841513       1.77388281927866
C         3.06855424917271      -1.59612464227794       0.05133798332746
C        -2.83208802188128      -0.44602843222865      -1.54908939908376
C         2.26507200241172      -2.71896272888790      -0.60296215900309
C        -2.66922929675206      -1.89205355404549      -1.08653137775857
H         3.28680278079338       3.07065934532118       0.47881676923494
H         2.64230276173954       2.47767089675258      -1.07451453491632
H        -2.18101595908519       4.00681494966459      -0.26034196614513
H        -2.80343467182405       2.95430941355146       1.03498016179129
H         3.39554215834722       0.75852471211118       1.36001181444420
H         4.33064980664440       0.92950450571366      -0.12833154913493
H        -3.64541893432370       2.21941286749521      -1.17564359666584
H        -1.99224928010991       2.10373828613675      -1.79874584450011
H         2.56483143149445      -0.13362797281865      -1.44955024693095
H         1.46867942195729      -0.15422296979909      -0.06666380924833
H        -3.19275551504776       0.37907439562526       0.42681557865342
H        -1.49094671913717       0.34537434999101      -0.06865822257973
H         0.33864232730112       3.26388515441735      -1.16055474535137
H         1.55579193979908       1.49307790117286       2.46708956709595
H        -1.17392090756249       1.91004007541264       2.54036042910881
H         3.02249702475991      -1.69913071847287       1.14204233882105
H         4.11925099602296      -1.67596216480783      -0.24791785805427
H        -3.85672059768312      -0.28266614803072      -1.89977641802173
H        -2.15185961914880      -0.25601830393986      -2.38438050526864
H         2.30680663437198      -2.63130795034951      -1.68888651546210
H         1.22023517194409      -2.67023000556351      -0.29231408579157
H         2.66982002814771      -3.68947414523546      -0.31438624529998
H        -3.33720802305675      -2.10904745938518      -0.25090295744028
H        -1.64207709070073      -2.07440579296864      -0.76701560857196
H        -2.90335015160593      -2.57290276987134      -1.90495617335527
S         0.87301625612617       1.41872887872290      -3.08747801654687
O         1.32323503028240       2.79657105564043      -2.92000968551962
O         0.09490030678391       0.94129680734366      -1.94383321564361
O         1.87178334891575       0.49869502822760      -3.56937450015983
C        -0.40071004053813       1.52729787643935      -4.42524747587207
F         0.10734994815116       1.96557348206160      -5.56587843781406
F        -1.36435702682131       2.37425598191763      -4.04419804545723
F        -0.96472260152633       0.34367311409533      -4.63777118539431
