48
C12H26F2N2O4S2 optimized with DFTB in AMS.
N         0.42969792249129      -0.62661790873836       0.21704189182524
C        -0.62463833885596       0.43097641489661       0.29146831450696
C         0.07684611191678      -1.75137748664198       1.15173697472344
C         1.74684146821300      -0.07625269035260       0.70028742928869
C        -2.01620979366912      -0.11521860057082      -0.01013874549112
C        -1.30548274340768      -2.33269382058852       0.89569803534217
C        -2.37719867650817      -1.24619931114134       0.95169671940234
C         0.58966743598893      -1.12735178313622      -1.17727869412278
C         2.30053083902853       1.09406692367087      -0.10626813085180
C         3.71600004568056       1.40846873113794       0.39719876327320
C         4.30598769875782       2.61430141814845      -0.33845635213289
C         5.76931523485091       2.83596436892835       0.05754251862297
C         6.34916614452897       4.07125160428380      -0.62826593535697
H        -0.36342457806522       1.21560530886201      -0.42125478216957
H        -0.59289692834599       0.84547308454888       1.30310151944732
H         0.13121901029656      -1.34704509468288       2.16571995958561
H         0.84210843866546      -2.51938638990187       1.03568003078516
H         1.60531347387896       0.22364880931626       1.74160119482342
H         2.45219221058226      -0.90824224817846       0.67142535932429
H        -2.72564978806262       0.70934950063669       0.09792974808203
H        -2.06830473511374      -0.46733317695445      -1.04391685037375
H        -1.33669980470402      -2.84707768434713      -0.06797799882771
H        -1.49071601364112      -3.07894241818269       1.67218556332145
H        -2.44982924643865      -0.85062118849380       1.97002930685375
H        -3.34842390931477      -1.66517164503152       0.67891423520499
H         0.62658920415713      -0.28136840434359      -1.85955708340223
H         1.51224041876552      -1.69893314877751      -1.24169727048295
H        -0.24768765201772      -1.76781064718728      -1.43775509277563
H         2.35101005539566       0.84202106924034      -1.16833450954271
H         1.66509877475556       1.97822838045310       0.00609029821132
H         3.68438842220657       1.61206106003640       1.47234567284949
H         4.35153583595391       0.53236155902517       0.24143169628145
H         3.71899743640422       3.50973404706597      -0.10451796707049
H         4.24447631777540       2.44805706818745      -1.41961013297976
H         6.35402584326061       1.95446495259157      -0.22504946150058
H         5.84039679508560       2.95287888380281       1.14404714535677
H         6.27584802450790       3.97587959191599      -1.71269808262133
H         5.81106377011211       4.97003270330292      -0.32266127932646
H         7.39957329265624       4.18914954925225      -0.36210698943450
N         4.11951841117053      -4.19195753130378       0.50521817553419
S         4.15897711891716      -3.04371385778826       1.59376168174464
S         3.12714511361150      -4.02279869437732      -0.71321874352858
F         2.62160113249630      -2.96229380438159       2.19474461161923
F         3.52149309044257      -2.59529216852086      -1.42315623669362
O         4.94462000933341      -3.48273453521374       2.69218424577264
O         4.35517767950187      -1.71204745637416       1.09273947341916
O         1.74321405527885      -3.80680957751475      -0.36985483571255
O         3.42730844017607      -5.00979513087843      -1.68984752380394
