79
C23H36F18NP optimized with DFTB in AMS.
N         0.78378608160497       0.25476037606465       1.03252339631894
C        -0.61532396279336       0.61603024358481       0.62753516717082
C         1.35049708097404       1.38192998468611       1.85140246551882
C         0.82081493891132      -1.01863727468583       1.83361140728986
C         1.59092199020431       0.12427390485705      -0.23573099215984
C        -1.51777276687130       0.94278241371003       1.81299798101838
C         0.49860292536703       1.72298496166528       3.06530625254489
C        -0.92733284856626       2.07570236136432       2.65160595657680
C         0.45316526142050      -2.28573235329541       1.06677498721098
C         3.05966094584995      -0.23822866371245      -0.03051008255187
C         0.29229373339045      -3.43634792607111       2.07022397655689
C         3.74661493218756      -0.41679161319882      -1.38838818606240
C         0.08219671675341      -4.77067170050972       1.35065287718915
C         5.22061632285264      -0.78510644945772      -1.18658612657370
C        -0.04197706229171      -5.91982688410509       2.35660834719757
C         5.93042677388836      -0.99866648164749      -2.52639052862863
C        -0.24644580979028      -7.25840926731370       1.64998248646790
C         7.39897705685529      -1.36352856313621      -2.31877124330554
H        -0.53834504178205       1.48851891323527      -0.02763331499506
H        -1.02308278557556      -0.21641960191467       0.05107978395876
H         2.34813171737609       1.08852897180210       2.17147793322921
H         1.42678091223593       2.24825545201988       1.18801015161410
H         1.83050297766609      -1.10879990139629       2.22835152484151
H         0.14269043273287      -0.89238946419461       2.67783899511255
H         1.09612184787521      -0.63181047513722      -0.85048246559482
H         1.51491203413401       1.08548463907265      -0.75236385250333
H        -2.48873674077502       1.24220944861065       1.40946036262572
H        -1.67640107129451       0.05633705932793       2.43209407866487
H         0.49731393153445       0.89510863908552       3.77745686934557
H         0.96981654188710       2.57697188527835       3.55802565853628
H        -1.54423593671969       2.23626058716304       3.53848996063417
H        -0.92458636514805       3.00079158896783       2.06554905353234
H        -0.47930948967628      -2.15740845146462       0.50914329474618
H         1.24351777144154      -2.54083810609905       0.35627269481652
H         3.15165856634276      -1.16612106100602       0.53515036257236
H         3.57168163849233       0.54830548628953       0.52695962327082
H        -0.56082175264946      -3.22935224696696       2.72498614637922
H         1.18670522930813      -3.49560663771818       2.69564139915254
H         3.67033749153272       0.51067754925953      -1.96677358182164
H         3.24146509036957      -1.20787063408987      -1.95366058643296
H        -0.82335493345645      -4.71857500176313       0.73542561205077
H         0.92957765034245      -4.96032950823762       0.68326410860911
H         5.71940969129860       0.01324265250216      -0.62804296126098
H         5.28350495793203      -1.69976230708267      -0.58956135841585
H         0.86548378204730      -5.96445885450705       2.96725500326788
H        -0.88719695004002      -5.72762162481926       3.02605459562734
H         5.42961040531702      -1.80101546864688      -3.07951291305533
H         5.86134224936292      -0.08508845393261      -3.12752653759418
H        -0.32324786449461      -8.05988587942969       2.38479424715603
H         0.59337361289950      -7.47316912061279       0.98776839709987
H        -1.16158284211086      -7.24235787159551       1.05585245548991
H         7.92314608659287      -0.55722130626672      -1.80410664327546
H         7.48519366172916      -2.26994479791389      -1.71822829033714
H         7.88234476818487      -1.53641084896809      -3.28053479240207
P         4.65944036965466      -1.07866153578840       4.03587060277311
F         6.02410618894352      -0.94273521050025       3.07622310892822
F         3.74186733370124      -0.32747634489855       2.77791714891728
F         5.49407221350396      -1.81800761583088       5.27218104631204
C         4.37002300078515      -2.83079510994935       3.19527942361243
C         5.16512415823600       0.68045543463002       4.73675470248591
C         2.91691031616058      -1.16888971463954       5.03708109197286
C         5.58022427622417      -3.53108375435664       2.51975286078364
C         4.92172872562610       1.92035609855251       3.83406027897284
C         2.81053126729441      -1.67246784730383       6.50047485974559
F         3.42109670434821      -2.76868833406350       2.22392182998108
F         3.90961836232365      -3.67935592765351       4.12930258573956
F         6.48116736475768       0.65489317134416       4.99560326772758
F         4.54295059477113       0.93505007605187       5.90204672722988
F         2.05193392003989      -1.94409612858325       4.33135177563864
F         2.37208945775738       0.07227675184284       5.00889792063907
F         5.26180747301574      -4.79722830402892       2.23147529715755
F         6.65401752715062      -3.54631619163463       3.29399537943297
F         5.88757298230898      -2.92983857084441       1.36846418153891
F         5.50418047832619       3.00142085055028       4.34793689902073
F         5.39476375191952       1.74926023572842       2.60232130682888
F         3.61040607161651       2.18860942005662       3.72802302334665
F         1.55889955741112      -1.50078650863516       6.94392338662219
F         3.62482319995453      -1.01980307241209       7.31841491761602
F         3.09175661000928      -2.96875658278345       6.57390684155256
