31
C7H13F2N3O4S2 optimized with ForceField in AMS.
N         0.03141867970918      -0.58289215295881      -0.42671154188037
N        -2.04351131839639       0.14126233317275      -0.09281057859471
C         1.40109333137359      -0.67613951815853      -0.92937185822622
C         2.41840971461671      -0.39248007916730       0.18208373712623
C        -0.88567982605138       0.35046119770179      -0.74852410274252
C        -0.56899465878498      -1.41121571823815       0.45228867865269
C        -1.85658870179256      -0.95984040035283       0.66075573390539
C         2.30592440029519       1.03616313310099       0.71150139674924
C        -3.25314894432488       0.95070069056267      -0.16225813959289
H         1.55375981613794       0.04415077580869      -1.76327066612876
H         1.57248236934206      -1.69713795859419      -1.33359655649654
H         2.27718902637406      -1.11029771125010       1.01866521985036
H         3.44030646310880      -0.54068947141286      -0.22561789060886
H        -0.70941574532348       1.17032431670107      -1.43410434440568
H        -0.10556150673624      -2.27626878322083       0.90882331025445
H        -2.59851108089799      -1.39962026040292       1.31471095015260
H         1.31890950556495       1.19523413290693       1.19510707104496
H         2.43130290137270       1.76647113968229      -0.11606078005938
H         3.10005442577184       1.21556444563503       1.46642468619405
H        -3.11591930378380       1.79638420667100      -0.86957989514961
H        -4.10189569781862       0.32527003405573      -0.50993329682356
H        -3.48654614482284       1.35877374880713       0.84360253526939
N         7.66500113744885       0.58990430254915       0.37951732597939
S         9.13868072671302       1.28965140511548       0.50917912086117
S         7.49837607606484      -0.93604355097823      -0.18773147895258
F         9.71516340541958       1.65204306164722      -1.02036003995485
F         8.04262676743667      -2.01811670822018       0.96800186861257
O         9.02725550386620       2.55342092665282       1.31293050892194
O        10.09693829457654       0.34534149761034       1.17872180524507
O         8.31235266027376      -1.10960218823259      -1.43888375687184
O         6.05182710456667      -1.20876658019356      -0.48302649033114
