29
C9H16N2O2 optimized with DFTB in AMS.
N         1.42832645898752       0.09991834971487      -0.29105998801564
N        -0.67269200702807       0.55316432482882      -0.27824157938559
C         0.25758846979159      -0.24626996123281      -0.81443055381604
C         2.72760673538477      -0.46972763350617      -0.63071500965713
C        -2.10289205713761       0.47597745960024      -0.53426491967357
C         1.26518877210631       1.12614643427011       0.59760237732462
C        -0.06438474447482       1.40918888510866       0.60854753665076
C         3.37082437986506      -1.08669730712839       0.60431959307667
C        -2.77028594558445      -0.42340269104011       0.50259855261412
H         0.08329290874993      -1.01244187269541      -1.55026336827026
H         2.57802542675810      -1.20826567561026      -1.42309312843112
H         3.34183473376020       0.36603905542808      -0.99504721135397
H        -2.51060228673038       1.48920146500227      -0.48540003067239
H        -2.25061216826823       0.07995374933877      -1.54282887984488
H         2.17193868834893       1.55635055665077       1.11922731475387
H        -0.62612490961269       2.14539980451842       1.15549632698627
H         3.56267220951936      -0.31228713961262       1.34739571474764
H         4.31874676352532      -1.54041900092460       0.31835289947071
H         2.72556297866351      -1.85101184876474       1.03895373980092
H        -2.35590144421587      -1.42987157182815       0.45260955857185
H        -3.84050590986149      -0.47009323800291       0.30683675839301
H        -2.61011947373195      -0.02720740406060       1.50464628531162
C         5.35344590881022       3.41252771518990       0.84840711397583
C         4.13603881915699       2.48748413562636       0.63168833536301
O         3.75558013477787       2.29711230369101      -0.53584656371591
O         3.61167940972888       2.00653390077137       1.67103545954379
H         6.00328997658142       3.38735480599729      -0.02426137138901
H         4.98794200093451       4.42979329032147       0.98859428273861
H         5.90111201789503       3.10907221114835       1.73858052650220
