36
C10H23NO2 optimized with ForceField in AMS.
N         0.00037851770469      -0.00580729840879       0.02008877760697
C        -0.84802168535217      -0.22770581300178       1.24352584536513
C        -0.84629743993591       0.20134354928980      -1.20647153340886
C         0.85920785155144      -1.22343654093312      -0.19101795025496
C         0.83632381170911       1.22717704633735       0.23665936688374
C        -1.90241799135442      -1.34781846826574       1.13777836991891
C        -1.90479144472188       1.31801164871917      -1.11026764104944
C         1.90060576639467      -1.12322169973387      -1.32247514011069
C         1.90967387466802       1.12706149118500       1.33867869768280
H        -0.21086915409439      -0.49286802950391       2.11448180873934
H        -1.37341398632368       0.70747105374258       1.53741806633658
H        -0.20853607302873       0.46379265373523      -2.07737893154550
H        -1.36402554857152      -0.73969689984849      -1.49486670711697
H         1.39355141457798      -1.49881490580563       0.74469539618271
H         0.22972183818555      -2.10411638405880      -0.44077285698668
H         1.34145495376608       1.53568665812372      -0.70507420175321
H         0.19190398044410       2.08776166747810       0.51873901342774
H        -2.46805610693374      -1.39423981784136       2.09226435821505
H        -2.63974526556842      -1.15765359247201       0.33370369398646
H        -1.43374631005287      -2.34111392175425       0.99227077922069
H        -2.47503350914314       1.35051015667251      -2.06257508449368
H        -2.63669814641220       1.13612799848497      -0.29935438170217
H        -1.43719145111695       2.31410716600352      -0.97904027403010
H         2.50946676827000      -2.05174578487259      -1.32935528332167
H         1.41188794278124      -1.05196918706635      -2.31417369079419
H         2.60056082672722      -0.27677545563362      -1.18275339365994
H         2.45000547063395       2.09546194960285       1.39753728865049
H         1.46020249758134       0.94557542571004       2.33487772187033
H         2.66546884365148       0.34794577386983       1.11851308625774
C         1.23294144133105       1.11324656855672      -6.22867930753618
C         1.15322851608576       1.49222167846138      -4.78355145365210
O         0.30513428060188       2.28437147866647      -4.40651729319312
O         1.93676755844949       1.01541408386410      -3.97880840804247
H         0.27307613020260       0.65658041342250      -6.54931841395031
H         1.42932231541105       2.01854731815427      -6.84067585778423
H         2.05215090158130       0.38175062722016      -6.39766117715822
