42
C10H22F2N2O4S2 optimized with ADF in AMS.
N         0.06123438546178      -0.49298109734112       0.17795158078783
C        -1.23924483281566       0.15664943271488      -0.25568927846093
C         0.18758369990408      -1.86071636884116      -0.47884130102358
C         1.19518170172991       0.40632046908499      -0.30135228989469
C        -2.46415934211776      -0.71388834414303      -0.01764043655014
C        -1.01389794748309      -2.74683390610710      -0.21804908742792
C        -2.31126248504838      -2.08553178302710      -0.67688265008842
C         0.11284899551098      -0.62341715679757       1.67008628700485
C         2.59488732387914      -0.01507613330434       0.10382691824883
C         3.62718589546870       0.93455641085136      -0.51431643404485
C         5.04122256382251       0.61717159942611      -0.03151138376009
H        -1.12236876310774       0.36010266138454      -1.33230574148837
H        -1.30428941775578       1.11878763350518       0.27541633610823
H         1.11077975399581      -2.31314623223631      -0.10670652827535
H         0.30938662115662      -1.66410330774998      -1.55574988947518
H         0.95847609428324       1.41144119597616       0.08714918462591
H         1.10134321488216       0.43298301078397      -1.39894655723619
H        -3.33082207715401      -0.16797800012323      -0.42762352032099
H        -2.65795328202898      -0.82468355506980       1.06256726958514
H        -1.06113729738024      -3.02328555876516       0.84834671278935
H        -0.82439289144488      -3.68995361899353      -0.75579310754757
H        -3.18038732130853      -2.72009674919191      -0.44090466302611
H        -2.29266224596212      -1.96208066124139      -1.77561430332189
H        -0.79484832935585      -1.12381640218566       2.01831524417123
H         0.98739825273745      -1.22863752132855       1.93996315737358
H         0.17277493992393       0.38452062913351       2.10204019153981
H         2.81026471685748      -1.04165154783219      -0.22380045856950
H         2.70441280689318       0.00161828602256       1.19982573146878
H         3.37205598186904       1.98123798344646      -0.26338682449805
H         3.58261248326178       0.85092557000420      -1.61526691452540
H         5.31653409268074      -0.41614182904654      -0.28694555576779
H         5.11345678980040       0.72218992213490       1.06247751720770
H         5.77796628116301       1.29497693301359      -0.48722575292763
N         3.61090552574867      -4.80655956428174       0.48013555499610
S         3.73171568070440      -4.07452220365227      -0.94380467540508
S         2.67557091947587      -4.22244622621015       1.63060573259031
F         4.69057797316798      -2.75429616753630      -0.59133190956671
F         1.13307086906594      -4.66157945076467       1.12905427406279
O         4.54793190584818      -4.88881059665456      -1.81283381723703
O         2.51051532095546      -3.45106543642767      -1.44749597443630
O         2.56089426689553      -2.76222607746152       1.69061608689488
O         2.87810451031907      -4.98035536896786       2.84342480132042
