55
C15H20F18NP optimized with ForceField in AMS.
C         2.67258489138651       0.29819416911910       1.68732906249276
C         1.67426797531910       1.24857857442896       1.04171434340548
H         1.40303205983951      -0.92795266268267      -0.76926980554886
H         0.35662300892305      -1.70754232612681       0.46666521801920
H         3.13227813117908      -1.53688718467353       0.60662939278443
H         2.04460765030920      -1.74491890322226       2.03555912896383
H         2.57678086491176       0.33867545462259       2.79458569602137
H         3.71548099616396       0.56137003407004       1.40426418947805
H         1.39891433039077       2.07239120036175       1.73998602133063
H         2.18071475768924       1.72172582369534       0.16781548686649
H        -1.25640303608633      -0.39402536077469       1.53901361855088
C        -0.45592641086463       0.34781801906561       1.74762781603174
H         0.05389574612083       0.01056424551046       2.67734134021656
H        -0.93205932104413       1.33155654759775       1.95678388702177
C        -0.12891779839110       1.11888518843321      -0.57493083465504
H        -0.26028672082950       2.20311560381788      -0.35080979772081
H         0.55518223370126       1.08048993286888      -1.45347998805878
H        -2.26343516161961       0.68034258615187      -0.19124335223787
H        -2.81001131393067      -2.13104418350643      -2.74845334888049
C        -1.52459735776076      -0.80832837512781      -1.60850886317589
H        -0.67037390372717      -0.93256474447982      -2.30871805868444
H        -1.44307589288675      -1.55610607242072      -0.79621204088002
C        -2.82264644945658      -1.09028891565050      -2.36152163414880
H        -2.93116982917339      -0.39499860761216      -3.22102138409635
N         0.49829377680887       0.45247672615167       0.61238970071645
C         1.07267106075467      -0.87622692796141       0.29335532348931
C         2.29723910888133      -1.08057074751590       1.17989158920053
H        -3.69484743822646      -0.97412238390393      -1.68302251327692
C        -1.52438077185447       0.60754142420410      -1.01593955064498
H        -1.88079145681771       1.30982830645424      -1.80205263597513
P         4.81383784151016      -1.37471018813609      -3.21134355861562
F         3.92400515238361      -1.98578755684490      -1.86805253443213
F         6.48307867066681      -1.72485531370286      -2.96556473037341
F         3.13096783190281      -1.22783321515508      -3.53851228213383
C         4.96085271346389      -3.26446301500732      -3.59039385456439
C         5.13319379825548      -0.09777858921656      -1.79316893211406
C         4.90999880995325      -0.27363640979526      -4.78240461889426
C         3.65485561902973      -3.97131012680732      -4.01453726024093
C         6.16759997754823       1.02475453940969      -2.06131959533313
C         4.40748067522701      -0.87091484414672      -6.10988768939701
F         5.41700198331351      -3.92002580302699      -2.45238052899241
F         5.90404088047384      -3.48467562732668      -4.58164776651073
F         5.57901857653386      -0.76711215719101      -0.65742182464529
F         3.93279017066464       0.52038460332912      -1.48081867223619
F         6.23079430084184       0.09187659512393      -4.97209332103359
F         4.17029195156066       0.87762716254196      -4.56830605290182
F         3.90835211481611      -5.32232462109710      -4.17270332505139
F         3.18676252219958      -3.48647893143457      -5.21568197685650
F         2.66761385253481      -3.83288181815350      -3.05609112643078
F         6.41520455726483       1.68888430171064      -0.87247148478346
F         7.37173376965181       0.52699462544335      -2.52163100378067
F         5.68920467354042       1.95899906672813      -2.95646828373099
F         5.05885777196722      -2.04469924184048      -6.42042419597244
F         4.66775646865741       0.03123552372391      -7.12646158335839
F         3.04103402932863      -1.07955629012308      -6.07930582082165
