36
C10H20F3NO2 optimized with ForceField in AMS.
N        -0.00983931972165      -0.01004559402722       0.00355191361886
C        -0.86668780946784      -0.29817016462587       1.20700934252784
C        -0.84821473853515       0.25743252782268      -1.21764531675539
C         0.85547016356787      -1.21215075747495      -0.26482675802373
C         0.82046358663786       1.21218751201193       0.28986145543101
C        -1.91472380219657      -1.41588261872195       1.03400981786852
C        -1.92082601278318       1.35538427185213      -1.06971787561129
C         1.92948144584181      -1.03750244841211      -1.35720773526090
C         1.86371119006075       1.06691310941934       1.41577755014574
H        -0.23505942627421      -0.60635392104734       2.06794301928479
H        -1.39691602079806       0.61905355006464       1.54581975937992
H        -0.20627991956470       0.57504912584134      -2.06728836017758
H        -1.35411933019039      -0.67111309726088      -1.56288111712573
H         1.36547410144641      -1.54978393639547       0.66423138531309
H         0.23246069855169      -2.07412392677261      -0.58727505798488
H         1.34982475542189       1.55587335006580      -0.62607295441581
H         0.16948108768026       2.06183034160457       0.58876456206003
H        -2.48959738049012      -1.51377488151100       1.97919400522023
H        -2.64525345902002      -1.18900752478506       0.23319456583276
H        -1.43809128884493      -2.39741435834092       0.84142041244121
H        -2.49024571706901       1.42697430520147      -2.02056576190192
H        -2.65294439075572       1.12689648335777      -0.27099708999324
H        -1.46528713212003       2.34933046452665      -0.88951737107495
H         2.50525344514291      -1.98319284244082      -1.44428295465548
H         1.47648385032867      -0.84175329740411      -2.34919478829688
H         2.65536600337896      -0.23836206472328      -1.11045847899078
H         2.42533278782215       2.02076776739780       1.50436814832945
H         1.38282513400263       0.88313579908122       2.39694924319753
H         2.60503952127074       0.27152852763455       1.20539974923916
C         6.23786488502869      -0.07455026529766       2.03641024181273
O         6.00591642559090      -1.26439767793932       2.18068570138156
O         6.66640294379908       0.57455680759694       2.97721145685789
C         6.00540585906798       0.59173540844216       0.71273786949529
F         5.13135837010592       1.65025986010561       0.87428246800701
F         5.46629559485296      -0.30315708241573      -0.19537582483340
F         7.20604423283148       1.06696113756973       0.21898927825734
