47
C13H13F18N2P optimized with DFTB in AMS.
N        -0.57951031661429      -1.81316374862037      -1.72531159472511
N        -1.79320826511234      -1.02344814794580      -3.31666099540271
C         0.58488347546200      -2.16777587689878      -0.92122889216329
C         0.71913964628866      -1.22860424641143       0.27898418007197
C        -0.54811834545995      -1.11174777474044      -2.85500438259519
C        -1.87006314797895      -2.18810667814296      -1.46409362232263
C        -2.63514227051556      -1.69492149490331      -2.47202613244450
C         0.99133300239247       0.21260686872293      -0.14534196405586
C        -2.16575955321081      -0.47916179317548      -4.61250621451738
H         1.46286923016918      -2.11172273764294      -1.56876571283850
H         0.45481078551636      -3.20081850462360      -0.59106863877852
H        -0.19556112735590      -1.27391552397841       0.87762930315856
H         1.54587954955421      -1.59323452441789       0.89428303301490
H         0.33474290693751      -0.72564669089583      -3.33371481142589
H        -2.13003669339871      -2.78718882951768      -0.60939643470045
H        -3.68921339732417      -1.78183550629119      -2.66770081381454
H         0.16516063259970       0.59991060974873      -0.74347408613615
H         1.90631747396953       0.27079874344032      -0.73574106264975
H         1.10514729706697       0.84239955327738       0.73623986311908
H        -1.26304049253711      -0.16449207541512      -5.13170310264001
H        -2.66514187679931      -1.26201421390889      -5.18354014600278
H        -2.83868910509191       0.36760279856630      -4.47566783154148
P        -0.05920524735059      -4.28570173182475      -5.32100024835395
F        -0.05771942921143      -3.58054826999096      -6.83744948775289
F        -0.23321904066743      -2.71569008768961      -4.63788089390978
F         0.10030902641565      -5.81606114446130      -5.95377132610362
C        -2.01384075259990      -4.41795853796525      -5.47547062315770
C         1.88969792743046      -4.04696171410431      -5.36568418033335
C        -0.08928008834495      -4.98181417746742      -3.43323932875260
C        -2.66213520765037      -4.20122329121548      -6.86749134006605
C         2.44345490042010      -2.62402199826229      -5.07965812070589
C         0.12160514012951      -6.47990402316497      -3.08817086786535
F        -2.63802841446937      -3.50921290315621      -4.67766472963238
F        -2.39173113642896      -5.63100845777053      -5.04432100170286
F         2.32746235705418      -4.37897459136790      -6.58907788206242
F         2.49973568747689      -4.87372951319886      -4.49677032104581
F        -1.26791781847522      -4.64352303327690      -2.85588314235965
F         0.85246097245863      -4.29600887717327      -2.73372833174517
F        -3.95926552260323      -4.51973293951148      -6.81783595587375
F        -2.10000174568338      -4.92519239010008      -7.82086334470198
F        -2.58785157372466      -2.90771722232989      -7.20239543416182
F         3.76341451622490      -2.58569021829037      -5.23916665592427
F         1.90613926218231      -1.71084830750958      -5.88365065183041
F         2.18822412045989      -2.24032487516286      -3.81447252860543
F         0.18935853026372      -6.62186928726576      -1.75689431231247
F         1.24364744159894      -6.96175763112555      -3.60443696451362
F        -0.89300812796328      -7.21729605863983      -3.52217922263662
