53
C15H17F18N2P optimized with ForceField in AMS.
N         1.02942000742544       0.33406449069876       0.45604285528745
N        -1.00208516562732       0.33124922723665      -0.44776430464216
C         2.28254650461566      -0.13416506730708       1.04509350065972
C        -2.25578330341791      -0.14078941115151      -1.03277789351965
C         0.01346018554732      -0.42841522939385       0.00692438576479
C         3.46207624728444       0.10544177695723       0.09623255775074
C        -3.43478122418288       0.10659892048161      -0.08513731793143
C         0.64450412631107       1.61466102721142       0.28057257562734
C        -0.61638310837671       1.61291143455186      -0.28158907282023
C         3.34154878994931      -0.71950328114630      -1.18397528978644
C        -3.31643128052716      -0.71310402567895       1.19879218800263
H         2.21176462693633      -1.21848591063755       1.28371048062359
H         2.46064816215856       0.40584126161773       1.99975865636569
H        -2.18571288671456      -1.22693917145170      -1.26343126136876
H        -2.43456127595950       0.39218970311163      -1.99151246116686
H         0.01307905227226      -1.51172530406824       0.01093143822364
H         3.52758643899495       1.18438225821275      -0.16267390902558
H         4.40224917545735      -0.17949145933493       0.61673953131967
H        -3.49761082440184       1.18692953992864       0.16856819699628
H        -4.37578921178295      -0.17794663280958      -0.60425100035930
H         1.23363681308872       2.48337486214397       0.54507115922926
H        -1.20506783531112       2.48003848486202      -0.55216480877981
H         2.45782735924136      -0.39493968971161      -1.77354732315870
H         3.24387193453787      -1.79945831753737      -0.94149418664474
H         4.25076741100863      -0.57658669188932      -1.80495244334247
H        -2.43135635488897      -0.38880981859950       1.78643073286870
H        -3.22241899351957      -1.79445329666359       0.96101964212843
H        -4.22492478592348      -0.56471423743138       1.81958744321892
P         7.91021172142610       3.19086324572788       3.49781539465461
F         8.74473588729863       1.93784140381563       4.33378491040178
F         7.04896513768141       4.21789077062269       4.58170627322005
F         8.94550076822960       2.53224620740587       2.29118828653646
C         9.32096045237977       4.21447420568576       4.34769993668910
C         6.60168301220219       1.81971490518663       3.90297352237899
C         7.18569636032675       3.98395503572913       1.89193096559124
C        10.78142701880935       3.86850537782350       3.95681529563055
C         5.12998861804463       2.12390347927125       3.55012871178284
C         8.00808196529147       5.09350519842984       1.21191722461724
F         9.23256242209663       4.04634633514705       5.72395165630457
F         9.14006281843032       5.56150230466435       4.09975177019875
F         6.61105977550355       1.55499338388657       5.26966553773160
F         6.94563500583619       0.65538314481288       3.23063159011140
F         5.96490201991010       4.55920407569755       2.19654421505787
F         6.95703143672286       2.99419581973196       0.94574342521390
F        11.63580829661768       4.72940648483024       4.62364252774998
F        11.00347802000421       4.02426943028579       2.60524064457341
F        11.11786225220848       2.57805669242293       4.32275734161443
F         4.33370931603134       1.11180618660694       4.05690855865560
F         4.70876946039297       3.31371450971781       4.11418502900963
F         4.92867772513168       2.15523416877873       2.18517749058847
F         8.05868545832297       6.22593676975031       1.99952707961293
F         7.38316169210820       5.44265170077074       0.02734901339750
F         9.28356346829759       4.67475859639618       0.90402951645635
