32
C8H18BF4N optimized with ADF in AMS.
N         0.94488478834101       0.13661986639601       0.12081083311970
C         0.20951256871313       0.83823077430214      -1.01553838233690
C         0.69045353943100      -1.36232173820156       0.03275609478713
C        -1.27673916994321       0.52837134706887      -1.03843688195037
C        -0.79201028535427      -1.70220905992703      -0.00397087259446
C         2.43357771015175       0.44011516794296      -0.05940686451136
C        -1.51330825383082      -0.97808089522996      -1.13920254958178
C         0.49478396725434       0.66723720149148       1.44022092956201
C         3.36538159029465      -0.42434834080718       0.76251357044983
H         0.69245220612245       0.48544737869541      -1.93984432497730
H         0.41588749976743       1.91338157150686      -0.89405785440173
H         1.18211039034265      -1.81335160743409       0.90604807740317
H         1.19717865624815      -1.69666514909015      -0.88456527716592
H        -1.69033884820409       1.04169278074263      -1.92277028605851
H        -1.79353749708529       0.95446301925822      -0.15963948597771
H        -1.27443619227066      -1.48692372996746       0.96680625027930
H        -0.85521678438629      -2.79417619260676      -0.14533897194004
H         2.64371420090815       0.30803373525153      -1.13119385115862
H         2.53408207923221       1.50717921094524       0.19631762953897
H        -2.59191510770854      -1.20110870612104      -1.11044150279227
H        -1.11025471931175      -1.33705280139887      -2.10064001404398
H        -0.56614149937799       0.44774488289098       1.58902117227376
H         1.08414379264853       0.19090746122865       2.23228278765045
H         0.65556027786735       1.75296055711397       1.45179485987693
H         4.37525442446854       0.00033288034396       0.65630592921922
H         3.12949229725636      -0.44157040520360       1.83766159716260
H         3.40604994858982      -1.44657958745771       0.36324095506075
B         2.32065742776378      -1.27077878915763      -3.26791321938505
F         2.83780291871378      -1.77772074166015      -4.45227670367552
F         2.46681916289731       0.16165187989634      -3.19939648982730
F         2.98625157922814      -1.82977033539933      -2.12219142059609
F         0.91836483713240      -1.56330850901271      -3.13785456530891
