32
C10H15F3N2O2 optimized with ForceField in AMS.
H         0.49220249109712      -0.46190373756720      -4.91665358957599
H        -1.17609348584302      -0.66117634342042      -4.24831055328144
H        -0.01137465795921      -2.04009830641285      -4.18526375700382
C        -0.10814605429570      -0.93626676815153      -4.11219924432621
H         2.47837161247293      -0.13479177790498      -0.35341709128242
H         2.41021583027130      -1.20626187699489      -2.79845423681074
H        -1.35341849420780       0.49540349594696      -1.98232657429588
N         0.37323102953761      -0.48827040329003      -2.81167367399445
C        -0.32144566076219       0.18547416929078      -1.87452312145901
N         0.43047322446817       0.41005355690372      -0.77883573998855
C         1.63666348716874      -0.13678321587074      -1.03366609100149
C         1.60180529358551      -0.69055451468659      -2.29713624370122
C         0.01797971023255       1.09715752552323       0.44267754737377
H         0.80068988859963       1.83006751764424       0.73644334876181
H        -0.92456758884828       1.65839068722723       0.25680643513172
C        -0.20741365036068       0.08413256084692       1.56831756930176
H         0.73734179343769      -0.47116546865406       1.75907715392126
H        -0.98601953480744      -0.64307603460631       1.24752359627293
C        -0.65815726636144       0.78109115335347       2.85689480641223
H         0.12796509616846       1.49251813799198       3.19234632339534
H        -1.59349675781476       1.35244730128964       2.66847620714006
C        -0.91592814461648      -0.23198940903741       3.96856286735516
H         0.00994436873715      -0.80356130921850       4.19244153365150
H        -1.71929596070287      -0.93815786815253       3.66809505120980
H        -1.23699305480389       0.29934965284974       4.88917490188714
C         4.38542873526610       4.22900201496654       0.78224457106956
O         3.32339839131726       4.81853121528825       0.90324709636636
O         5.40265151750887       4.71769854743969       1.24665043781679
C         4.44658961960063       2.91186091313261       0.07054425202390
F         5.33151944212731       2.99901393505769      -0.98808863632650
F         3.19786073194844       2.56667135394545      -0.41387328241124
F         4.87840013093831       1.93369448966988       0.94703387796786
