26
C8H14N2O2 optimized with ForceField in AMS.
N        -0.51724837123570       0.18825051509388      -0.34511536990283
N         1.67022746073740      -0.04760445028882      -0.02857310061683
C        -1.90742584612621      -0.11183231596968      -0.67820343219068
C         0.53179907641269      -0.65436593738557      -0.41664793220185
C        -0.02496323070021       1.36388562958573       0.09605426814962
C         1.33336034499635       1.21672497756773       0.29269010495183
C        -2.74538466013757      -0.22035934097764       0.59024563870718
C         2.99981352416083      -0.63851953995878       0.05073849574889
H        -2.31532042005846       0.68852383874337      -1.33271610665411
H        -1.96675999395615      -1.07426431934955      -1.23213026236480
H         0.46578500396698      -1.68793847801793      -0.73320861286273
H        -0.60821044721083       2.26050118874858       0.26134327689222
H         2.02136855697832       1.97337792484930       0.64693901002937
H        -2.35007444731560      -1.03259901395254       1.23671607548036
H        -3.79749749628341      -0.45416670783508       0.32410651619474
H        -2.72202205330692       0.73726487274847       1.15190380560418
H         2.97266095399010      -1.70303371500534      -0.26586111993152
H         3.69534307604276      -0.08334772740577      -0.61276426296123
H         3.36920914350587      -0.58495204170554       1.09617333213769
C         5.92984472511218      -1.67870882479476       2.90093195062761
C         7.37827647173572      -2.03604075215850       2.78667090150275
O         7.87325504355897      -2.22867749496927       1.68805864345818
O         8.06897538190483      -2.13537713077933       3.78811029810013
H         5.73769170449778      -0.72680740889636       2.36288352828084
H         5.31018655194804      -2.48332391119306       2.45203750312069
H         5.63944112158226      -1.55400555529354       3.96620843230030
