58
C16H36BF4N optimized with DFTB in AMS.
N        -0.01350025167237      -0.05881750581952       0.07514586216967
C         0.82568939957157      -1.12680974897869       0.73147309516142
C        -0.89638383565224       0.55455533781388       1.13050296189947
C        -0.82543665594231      -0.67077540411830      -1.02926041062332
C         0.85301083275510       1.02917010596582      -0.51210109029862
C         1.85213305247976      -0.59772512665242       1.72993995314487
C        -1.92334844122641       1.56632147797720       0.62584034177871
C        -1.82842876023414      -1.73687884156799      -0.59109316503660
C         1.95062752848382       0.55990234629479      -1.46236685629968
C         2.55355208002978      -1.76037832084322       2.43815599638810
C        -2.39512349985690       2.41287223711879       1.81649469028506
C        -2.59489857656326      -2.24421757166091      -1.81926904542782
C         2.71957319415395       1.79343687889294      -1.95658304828787
C         3.57636147791746      -1.21537193490817       3.43443051535251
C        -3.43096613501017       3.44631745370942       1.38136028614492
C        -3.61488254291006      -3.31131440780757      -1.42780153058022
C         3.89342566297507       1.38982321513531      -2.84453243007615
H         1.32339157117442      -1.68277561106299      -0.06728622969277
H         0.13404498746496      -1.80326971138773       1.23971010420665
H        -0.22597932341259       1.05794669261462       1.82850608952977
H        -1.39790237092575      -0.26118646395416       1.65594742543020
H        -0.12126285352070      -1.10991489412807      -1.73950577578454
H        -1.35139152489508       0.14650879166133      -1.52864193903329
H         1.29327267924565       1.57709555555258       0.32271515133757
H         0.18786674301257       1.70846001288838      -1.04840745308013
H         1.37570959528694       0.03734821245771       2.47831094486646
H         2.60474510203920       0.00763607988050       1.22435390018617
H        -2.77684381675262       1.05877901544977       0.16511599927654
H        -1.48383888156809       2.23315714069343      -0.11877078692899
H        -2.54037815561791      -1.32557304290650       0.12833544178931
H        -1.31401738515365      -2.57737521850397      -0.11836439229283
H         1.52958416360735       0.02452250247713      -2.31969875510103
H         2.64728798200460      -0.11062252271991      -0.95380689674522
H         3.05548737877337      -2.39507299440761       1.69927167850802
H         1.81499468018340      -2.37595274451312       2.96425593162313
H        -1.52772184512923       2.91927659301745       2.25119938966709
H        -2.82608848055088       1.75832075467068       2.58128355928389
H        -1.88723402599949      -2.66189499996011      -2.54296216368380
H        -3.10935623638719      -1.40485373573526      -2.29855470576494
H         3.08461877278679       2.35636498682442      -1.09301325360808
H         2.03964909620293       2.44270494698364      -2.51781793592761
H         3.07953081134505      -0.60378704172194       4.18764141798524
H         4.31031421262617      -0.59426165998343       2.92174349099535
H         4.09191619848991      -2.03750152168955       3.93085329567762
H        -4.30748032589550       2.95765724836549       0.95246864126762
H        -3.00753158186010       4.11983997642554       0.63537923728264
H        -3.74706727258476       4.03592429660690       2.24151838485134
H        -4.33995703301179      -2.90593913077312      -0.72123200845373
H        -3.11742323357165      -4.16454840776836      -0.96532887861958
H        -4.14741368910728      -3.65679141075329      -2.31348310455861
H         3.54588754124711       0.83555682658928      -3.71836102994878
H         4.59365289079162       0.76277157639061      -2.29095881150418
H         4.42082089051749       2.28059049102305      -3.18509743444584
B         2.18543768435222       2.98162153881833       2.11389587108818
F         2.50127695673890       4.05347628900123       2.89856215109518
F         2.30010637331279       3.28488735643609       0.73712102241542
F         0.82482452911941       2.57843667916453       2.33156689005465
F         2.99337284082278       1.86397485482506       2.38483151056145
