43
C13H28ClN optimized with ADF in AMS.
N        -0.67307709156610       0.52686120797390      -0.19625340322955
C        -1.71426435711657       0.26327474893128      -1.26241035276276
C        -1.17262933511649       1.62076953958114       0.74237936843013
C         0.57351082703290       1.02178544128032      -0.90643164147013
C        -0.37569867770161      -0.72192814191268       0.62116923225617
C        -3.08246547859241      -0.07869964273869      -0.69456008129526
C        -2.53631411285656       1.30120569235167       1.32658923340348
C        -3.57875446355338       1.01745381320486       0.24784981018092
C         1.76800011735034       1.30923380780169      -0.02004047409441
C         0.30722273966132      -1.84408484306306      -0.13523507157692
C         2.95613459791508       1.76150729347666      -0.86821939153636
C         0.47894748969699      -3.04780167673972       0.79677192823955
C         4.17577205213282       2.06281049353185      -0.00042302160175
C         1.19737929271240      -4.20652694840377       0.11360802200510
H        -1.32450817860795      -0.53741808494092      -1.90651760220516
H        -1.77187750337165       1.18781841032929      -1.85984849615485
H        -1.20908289437059       2.53796511407340       0.13065266567837
H        -0.42001407603112       1.69616685968321       1.56265090934213
H         0.26003934867017       1.93306273469083      -1.44214049745389
H         0.81646661849669       0.25848332779252      -1.66251326581126
H        -1.34069466995534      -1.06877915999470       1.00978658978313
H         0.21471667009081      -0.36768898364593       1.50241843389588
H        -3.04683257748198      -1.04871976455479      -0.17117045326387
H        -3.76882334405957      -0.21128309969296      -1.54809438122474
H        -2.82684616912391       2.16810027660933       1.94256551474366
H        -2.44381496524979       0.45882719037720       2.03212082009633
H        -3.75929268610531       1.93881081247144      -0.33672348564052
H        -4.54215565190186       0.72737813111017       0.69654624497211
H         2.04522003388074       0.42534567535297       0.57473539094226
H         1.52684981175169       2.07099829280582       0.73742600942651
H         1.30548937763618      -1.53245931772031      -0.48542764949080
H        -0.26813514460062      -2.16263609956296      -1.02431670567154
H         2.67987818890613       2.66137704934789      -1.44867156891565
H         3.20760280897101       0.97742695237565      -1.60692232155388
H        -0.51419359273129      -3.37851545170429       1.14967468734561
H         1.03537902453349      -2.72402005320117       1.69271329313518
H         4.47703804390751       1.17124127520416       0.57017967099857
H         3.94688187751410       2.85290259493298       0.73058174066446
H         5.03112557343002       2.38998951885132      -0.60948420276412
H         2.20384208885496      -3.90440162166781      -0.21706397338121
H         0.64087417903231      -4.55122783735947      -0.77281544919095
H         1.31130757875297      -5.06318936515641       0.79442769418955
Cl        0.89419893586348       0.88677989071808       3.20016874586047
