31
C9H16F3NO2 optimized with ADF in AMS.
N         0.00893913062585      -0.71752847204131       0.27445577585751
C         0.09030308118966       0.78695916573913       0.18404371660279
C        -0.85527916976462      -1.25585624732649      -0.86378240921846
C        -1.28182511141235       1.44456051315431       0.17666386003116
C        -2.23203002677990      -0.62483160572171      -0.88755899153386
C        -2.15481597422102       0.89962042492048      -0.95534301687745
C        -0.53396654973961      -1.15255125262116       1.60855509099993
C         1.37695411093462      -1.31323539415464       0.12591135480454
H         0.62585555021138       1.00615023258600      -0.75432499758883
H         0.70931214293606       1.12616661596010       1.02909810255625
H        -0.87504206735944      -2.35018822710256      -0.70150948328240
H        -0.29571241442834      -1.01520163881666      -1.78346402067133
H        -1.12675842281094       2.53087821475020       0.06975290857400
H        -1.77859288285515       1.29654267739065       1.15018596426705
H        -2.81550666765608      -0.95979506319516      -0.01531251183491
H        -2.75604196960812      -1.03732895681250      -1.76494807618084
H        -3.16199012748834       1.34311835085864      -0.90352218940169
H        -1.71894790515982       1.20250837366808      -1.92551315120892
H        -1.54874156528572      -0.76882711376629       1.73693930309175
H        -0.54398000055957      -2.25646327974150       1.59334913331337
H         0.12810617975564      -0.74855674038147       2.38617434784763
H         1.78716077703856      -1.00418480438265      -0.84417616484945
H         2.01102095174135      -0.93850482956749       0.94055031435271
H         1.26659010665282      -2.40722676178804       0.18036455413072
C        -1.19641126757183      -4.81042298547276       0.57179074666756
O        -0.34721873598712      -3.86887624164442       0.44582218279430
O        -1.05847499250736      -6.01208525803936       0.80590488056524
C        -2.68076467034815      -4.31081254649893       0.37208206762158
F        -3.62456947550760      -5.24962028227192       0.61179495376555
F        -2.89079665157637      -3.85503542073192      -0.91865624609418
F        -2.98647528765845      -3.23300222864862       1.19575680069869
