35
C11H20N2O2 optimized with ForceField in AMS.
N        -0.02097517926237      -1.32847547730063       0.33444602426347
N        -2.04319972389882      -0.41038625948097       0.23460463764665
C         1.33478202594621      -1.63487801687092       0.78668963818084
C         2.37645040354008      -0.87248158253164      -0.04270468045462
C         2.22325998709041       0.64825456041495       0.10571505228970
C        -0.93473171998943      -0.57883758099557       0.98095851716924
C        -0.57324793259808      -1.65323641696683      -0.85209973805861
C        -1.82746609648154      -1.08158411257981      -0.91499292629536
C        -3.20131004784343       0.41570787405897       0.56481152705982
C         3.31667983890571       1.38990416636172      -0.65615901503704
C        -3.17455622330480       1.70894954353837      -0.24215509649857
H         1.44974653109663      -1.36667650945682       1.86028073953437
H         1.51402818122064      -2.72754697893085       0.69281258292822
H         2.28010181292947      -1.15727447000542      -1.11331891719962
H         3.38893569371624      -1.17551208435845       0.30239197270756
H         1.23599796842722       0.97020839940490      -0.29094301708509
H         2.27907493216908       0.92926136653629       1.17996499081717
H        -0.77715020082755      -0.12637788212901       1.95213481938933
H        -0.08999056012403      -2.23729121211940      -1.62404197265346
H        -4.13522001044158      -0.14630593328729       0.34871411328399
H        -3.19190574847266       0.66757535591141       1.64797103015857
H        -2.51858802148767      -1.13042932809049      -1.74612027733353
H         3.27565623863492       1.13426535377847      -1.73638836079582
H         4.31626850589082       1.12298956008056      -0.25229228002513
H         3.16987974283001       2.48487102005117      -0.54435847555097
H        -2.24428730935232       2.27443156201673      -0.02022664572057
H        -4.04908330091557       2.33722514581910       0.02752200912458
H        -3.21450958709950       1.48620900829958      -1.32935832929321
C        -0.79103313618479      -1.47694621701821      -4.81714506894351
C        -0.19686215674844      -0.10532554913299      -4.87872997256218
O        -0.75537597304266       0.77209744366295      -5.51692122637558
O         0.84506669931090       0.14136226320234      -4.29282727586787
H        -1.78474845094402      -1.43016614064460      -4.32472336108779
H        -0.91200064302026      -1.87863797560364      -5.84522874307442
H        -0.13502116246885      -2.16295233683395      -4.24011334074055
