31
C11H18ClN optimized with ADF in AMS.
N         2.43879385929881      -0.05508310525776      -0.47613339229810
C        -1.37328992517522       0.05986395207747      -0.62835712295423
C         0.01218953024022      -0.12726342309522      -0.01670865357637
C        -2.47583779144917       0.04257325241082       0.42772550723762
C         1.09044213156551      -0.06630960681198      -1.09157788473672
C        -3.86898479290804       0.26199105259006      -0.15923781235691
C        -4.96634499277935       0.23794176252696       0.90232472957427
C         3.14718899763863      -1.20209248738487      -0.35093724896099
C         2.90657970580738       1.12843818192280      -0.00367076326247
C         4.37769451410044      -1.20259079905273       0.27356538453316
C         4.14967541870413       1.16432433560310       0.61310505704163
C         4.89185213054966      -0.00038081697682       0.76980270000001
H        -1.56881000047296      -0.72854557981171      -1.37977309431543
H        -1.37840845604535       1.03213735265545      -1.15335353339839
H         0.19736539348993       0.70517824725826       0.68491451484126
H         0.07717521135861      -1.08089348550110       0.54039069878220
H        -2.45519868001110      -0.92009782891115       0.97366089212113
H        -2.26724625899162       0.83218154208635       1.17300588421881
H         0.99068793002179       0.90154546083490      -1.62830170957185
H         1.05193470734899      -0.92239189130797      -1.78196025167374
H        -3.88227461937041       1.23040217068085      -0.69068143046808
H        -4.06838029096229      -0.51439506450572      -0.92056800340610
H        -4.80089336326232       1.02556296160493       1.65416995607138
H        -5.96208318156446       0.39913497704390       0.46012510972441
H        -4.98427263658545      -0.72956109733790       1.42951395508742
H         2.68604603092728      -2.09987126142792      -0.76119138234316
H         2.23048900844630       2.01341800331315      -0.19152810640335
H         4.92722892712383      -2.13886458948020       0.37005052400712
H         4.51866471801694       2.12674497194859       0.97151335321557
H         5.85973708898258       0.01776062885601       1.27455131574341
Cl        0.74820033205674       3.17238256454947      -0.93131837547348
