22
C6H14ClN optimized with DFTB in AMS.
N         0.48392163313689      -0.08036068218217       0.08097669713437
C        -0.28505151447763       1.18181848826966      -0.13339499833563
C        -0.50289791164589      -0.99439963989341       0.73902199781753
C        -1.69681330127333       0.72763630101968      -0.50526298328606
C        -1.82588066851953      -0.70563307899648       0.04096981442946
C         1.67223910798503       0.12716406854141       0.94713320461624
C         0.93243272329737      -0.64852284772599      -1.22096514131586
H         0.20099299181128       1.77976666796716      -0.90486728345752
H        -0.28441916544591       1.73606312116672       0.80820329819430
H        -0.54668330745873      -0.72216668437491       1.79584433538403
H        -0.14179818182918      -2.02234569399902       0.64570989330732
H        -1.83543299861267       0.74381154862806      -1.58819473797246
H        -2.43554027448440       1.39583683047621      -0.05955138736108
H        -2.65239012721120      -0.79126126573767       0.74823820143133
H        -2.00087895468421      -1.41303795808740      -0.77159728142372
H         2.36347048572512       0.79934955688908       0.44210896304693
H         1.35372364702763       0.55744358539868       1.89466901257384
H         2.13126745063312      -0.85333961209691       1.10724720664831
H         0.06726112100313      -0.81925368973789      -1.85686192825045
H         1.61300665684428       0.05670229175381      -1.69391385455111
H         1.44056477851849      -1.59318423056965      -1.00693254687071
Cl        1.89054200056033      -3.05958185010897       0.63154615614096
