27
C7H11F3N2O3S optimized with DFTB in AMS.
N        -0.04786769520836       0.22628818700289      -0.30370012473081
N         2.03379512293990      -0.07282876756527       0.14585089644831
C        -1.31952205280592       0.14431234829707      -1.01525369044256
C         0.99874077140170      -0.56440061122729      -0.52771362732302
C         0.34151141002576       1.27194513097390       0.48945577413972
C         1.65628202963359       1.08372658382624       0.77035175562511
C        -2.48766677863635       0.07050756101384      -0.04272845553245
C         3.40470464979186      -0.54204569667228       0.05124033434890
H        -1.38092005651120       1.03118227341115      -1.65353912088531
H        -1.28323638046791      -0.74364579979705      -1.65057735378425
H         1.01243822450183      -1.43394463698302      -1.16119060199981
H        -0.33105469179797       2.06476576425000       0.76399776725852
H         2.35397568819701       1.68224239966633       1.32813052632948
H        -2.38615268960081      -0.79523247516247       0.61178426090685
H        -3.41462796182096      -0.02068751297038      -0.60696146891446
H        -2.53880907975107       0.97015640878249       0.56936798816898
H         3.42246088833801      -1.48210434596513      -0.49575508689981
H         3.97590572032738       0.21423060131389      -0.49109222552821
H         3.81360921345356      -0.67723037055632       1.05217802369164
S         2.16299733299331       1.94208344641258      -2.68203343145356
O         2.35266246677484       3.04375686268714      -3.58424955320383
O         0.78285040919861       1.51818769544878      -2.48406925705543
O         2.94316009292889       1.99324835079647      -1.45161843566661
C         2.89735791882039       0.46572103393577      -3.54511716478218
F         4.20905041852736       0.57692147714138      -3.71428248127566
F         2.33757352441365       0.22501873639277      -4.72208410957286
F         2.69137963933295      -0.63056345375348      -2.77409684866670
