41
C11H22F3NO3S optimized with ADF in AMS.
N        -0.66719869724786       0.08705677468441       0.23748374081769
C        -1.60430747119072       1.11808392328546      -0.36056471901246
C        -0.99014961893410      -1.29333143272032      -0.32875212026696
C         0.74245631657435       0.48989800902339      -0.16452406182008
C        -3.07348946466706       0.76811653506851      -0.19884960766584
C        -2.45468666793581      -1.65517653112190      -0.17331245201305
C        -3.37531072074061      -0.60775421207096      -0.78934412546133
C        -0.78153272197595       0.07012460048241       1.73407784766541
C         1.85688579633492      -0.39721621184483       0.35261096959180
C         3.21074204208673       0.08560960318585      -0.17191245185220
C         4.34033805749360      -0.81216686900892       0.32602190634874
H        -1.34454071854889       1.17454486111396      -1.43021606069320
H        -1.35346019857001       2.08046044172859       0.11153489626426
H        -0.36392561677085      -2.01491106495943       0.21334915120099
H        -0.69957435665361      -1.24727037110534      -1.39151624288859
H         0.86816908515864       1.52639076359307       0.19168276305172
H         0.74103599318884       0.50912197715040      -1.26694141987222
H        -3.65363461236305       1.55722198050315      -0.70535171485624
H        -3.36293865104040       0.80220884185662       0.86478101627498
H        -2.68105758737091      -1.82581039342398       0.89044878493578
H        -2.58414726236600      -2.64165829333078      -0.64511618998555
H        -4.42963953376425      -0.87229156593099      -0.61454801084759
H        -3.22593940452305      -0.57318503217424      -1.88478037378265
H        -1.82596048260187      -0.09116153146361       2.01376254155479
H        -0.17905153062942      -0.76997000964159       2.11463572789522
H        -0.43033964295861       1.03866427182268       2.11410281429015
H         1.70012667754123      -1.44330852280215       0.04988627847869
H         1.87473014949205      -0.40815189181179       1.45256215555600
H         3.38940051619805       1.12820568795173       0.15077097931945
H         3.20201310464079       0.09678852316410      -1.27780513862461
H         4.18444606886331      -1.85186716922963      -0.00139395722561
H         4.37775357880124      -0.81823354605373       1.42670177770389
H         5.31560691899046      -0.47328873216914      -0.05161958135420
S        -0.12623680636034      -3.72507512133686       2.48239177524132
O         0.58312832588657      -4.96068364388768       2.80251539750846
O        -1.26884452252839      -3.82401153203136       1.55401411114068
O         0.73943643289274      -2.53996464349727       2.22795254670974
C        -0.95847603068898      -3.25563547142515       4.10113931772062
F        -0.05256693595064      -3.05641351907048       5.09340319626884
F        -1.83064835601279      -4.20934046991698       4.51116730887074
F        -1.67284608174935      -2.08349067608522       3.96557729291241
