65
C19H25F18N2P optimized with ADF in AMS.
N         1.35736857386475       2.30779934062819      -0.29988442963215
N        -0.79948587219755       2.53642901539135      -0.30593384122384
C         2.71989351827867       1.93927868989305      -0.72448567673667
C        -2.20600354786039       2.48119144112501      -0.74401698618222
C         3.05185384621922       0.51862585756168      -0.27238319537856
C        -2.62168998456132       1.05502134770383      -1.08366207836209
C         2.06460548805772      -0.50963314236630      -0.81665591240195
C        -2.35564503686197       0.03750594596139       0.02170829372656
C         0.26673101461897       2.27050486416212      -1.07808297978348
C         0.97979842012973       2.58077203997837       0.99651203354704
C        -0.37801878287855       2.72619653654772       0.99230585868827
C         2.49789553931359      -1.95458716209276      -0.58295822688254
C        -2.66661246639755      -1.38706594015706      -0.43813373664737
C         1.50959861937640      -2.94364891250777      -1.19823345357516
C        -2.37200710792622      -2.43352465132366       0.63176355896311
H         3.40477492761898       2.68907856293070      -0.30075243091661
H         2.74041668539729       2.01562912943614      -1.81985825858501
H        -2.31354575480208       3.15007606016779      -1.61101062324808
H        -2.79619095661696       2.89549490414676       0.08663219443078
H         3.10095828120408       0.47355781994809       0.83148678876190
H         4.06683263187779       0.29863623032887      -0.64460685594092
H        -3.69593060789854       1.07909124946044      -1.33738825054284
H        -2.09840585872662       0.74564742078179      -1.99803505013497
H         1.93995841748386      -0.35122465327338      -1.89866713851638
H         1.07054917745731      -0.35805863711375      -0.35548663037383
H        -2.94657337887654       0.28272969598799       0.92562484768844
H        -1.29157498385704       0.07920797778582       0.31973364580935
H         0.26537672148134       2.03691153055837      -2.14112602301935
H         1.70237000856416       2.65296272499757       1.79979241463600
H        -1.07476219003895       2.95040527712820       1.79016032173502
H         2.60934705490084      -2.14561826422477       0.50042610623337
H         3.49512258987566      -2.10175039814111      -1.03497136919932
H        -3.72646694500579      -1.44786830051370      -0.74368672051429
H        -2.07129285960001      -1.59879649215152      -1.34310151058328
H         1.42314436323530      -2.77461401617882      -2.28288149308022
H         0.50601645236871      -2.82193249737428      -0.76019424544609
H         1.82645726159273      -3.98512317567377      -1.03553918289895
H        -2.98271262720053      -2.26730017634316       1.53436243134251
H        -1.31186544823371      -2.40220758031250       0.93162542518017
H        -2.58461842004959      -3.44868281118214       0.26388883098960
P         1.38770243174562       0.46363337950608      -5.07680554910996
F         1.48028049922138       1.42164411848070      -3.64367555481345
F         0.81634276626166       1.74113884118624      -5.96149949047673
F         1.96160400642488      -0.82616842738094      -4.18829002671102
C         3.22121987481311       1.15438331596628      -5.37676637907788
C        -0.50392408482755       0.17793013665190      -4.33468837612577
C         1.13623863171081      -0.77989696720695      -6.63905749661977
C         4.40837510765919       0.50532221674080      -4.60513208219509
C        -1.76173221380599      -0.48182450779941      -4.98461571356341
C         2.11579338574093      -1.02416969268686      -7.82960768911851
F         3.26208925968365       2.48959094054169      -5.02210151900832
F         3.57726182289413       1.11137763684323      -6.70133789868509
F        -0.98696627767205       1.45084502371272      -4.01213332278247
F        -0.36235599938136      -0.49305991725294      -3.12817504240508
F        -0.03506564942021      -0.40391136494397      -7.26265065487030
F         0.93746260695566      -2.04057333135642      -6.11705708495069
F         5.56147657718570       1.16473693271065      -4.90434540730026
F         4.58224427132498      -0.79349175157809      -4.92516519414467
F         4.23709063822896       0.59526274364145      -3.25526683234583
F        -2.77587015854642      -0.48910456441436      -4.05376631030987
F        -2.21236450275250       0.22376018194449      -6.04037868381153
F        -1.55404432115490      -1.76242091463490      -5.34098707415075
F         2.24070659231210       0.06489633326421      -8.61762359852677
F         1.60415793269538      -2.02415695024106      -8.60484502317192
F         3.33529257527563      -1.42763962417537      -7.40587518915079
