44
C12H24F3NO3S optimized with DFTB in AMS.
N        -0.38997791455286      -0.02065735137260       0.03430477202073
C        -1.45786903799312       0.67524156762061      -0.75566458425242
C        -0.77737012083257      -1.45697721547765       0.23416466151916
C         0.86934843938617       0.02595530341020      -0.79822563198977
C        -0.18861359199610       0.63004128729964       1.38162628792947
C        -2.84417931228989       0.55710633177461      -0.13193101228213
C        -2.14593533377158      -1.61685590240069       0.88392839664570
C        -3.22578802222265      -0.90841429406785       0.06920119761383
C         2.06132013062808      -0.70104277802686      -0.18262464804125
C         0.43690253521487       2.01233322888692       1.35565834669997
C         3.35634487212106      -0.31573571955290      -0.90698585676102
C         4.55834204490828      -0.89589769972923      -0.16429625729010
H        -1.46489148512997       0.22183520711881      -1.75113728949808
H        -1.16627256868316       1.72291166711290      -0.85114417206353
H        -0.01280174782009      -1.91836468158219       0.85941034573645
H        -0.77121847430667      -1.93144677435414      -0.75152096793160
H         1.10335581698745       1.08163237481576      -0.95178237474834
H         0.61829220270956      -0.41169502570777      -1.76897145992221
H        -1.16363876302756       0.67942728206692       1.86589342917982
H         0.43632898991736      -0.04263843017565       1.96491321824703
H        -3.55079811340965       1.03670818584917      -0.81440330044199
H        -2.88782382776034       1.09278746027278       0.81931478376043
H        -2.13041214114259      -1.23487338046408       1.90729024458236
H        -2.36007129537692      -2.68748959637606       0.93324775645621
H        -4.18428937080451      -0.97150497125624       0.58912969981336
H        -3.33278627303363      -1.39690477719881      -0.90499610897100
H         1.91827155003454      -1.78297426519320      -0.24174316047620
H         2.16980989271062      -0.42755630646751       0.86652580527979
H         0.45963413972270       2.35444363355558       2.39045927047567
H         1.46477477057956       1.98324134444093       1.00158589932968
H        -0.14022127429226       2.72010994353072       0.76118884012284
H         3.44248344093634       0.77569670420055      -0.93858945294927
H         3.33347245888047      -0.68258516190517      -1.93912641426573
H         4.50021007765430      -1.98435313317557      -0.13420171794495
H         4.57957399928477      -0.52077133295204       0.85926697834049
H         5.48150602418555      -0.60716160192740      -0.66616152382951
S         2.27727894306402      -0.00836603716942       3.84472435787581
O         0.86125561260859       0.20366523961916       4.09445927517229
O         3.15019417847497       0.14673085961443       4.97377172145307
O         2.74305691143387       0.59070012562894       2.59802532126814
C         2.34109527593905      -1.82407279861116       3.42372225347355
F         1.35462740120246      -2.09604857167680       2.53025586632718
F         2.15580953206654      -2.62104178218746       4.46364507893639
F         3.48525885059496      -2.15786969811017       2.83313323549969
