38
C10H22BF4N optimized with DFTB in AMS.
N        -0.30045247608328      -0.17157260572016       0.03493666141475
C        -1.00980061655450       0.55721715708282      -1.06665444847708
C        -0.98076454019622      -1.50042884141232       0.23238084504320
C         1.10884312805487      -0.42114620056606      -0.44134959135860
C        -2.49333063798291       0.76082014965870      -0.77954018745009
C        -2.46785363304251      -1.37151620574345       0.52799800342779
C        -0.30414543509861       0.60760279279754       1.32292314454189
C        -3.18880948791179      -0.58306759993131      -0.56231417663263
C         2.03332913060562      -1.09834422329678       0.57026793658334
C         0.33930598356424       1.98145515237652       1.23959882233958
C         3.37607833778491      -1.38937929958380      -0.09732282425264
H        -0.88867067830441      -0.04466384584641      -1.97222994381995
H        -0.50840567140819       1.51477743943821      -1.21925543767789
H        -0.48625913442357      -2.00933669558503       1.06025257363217
H        -0.82556685092876      -2.07071660305003      -0.68849710631154
H         1.52205927145544       0.54659052371045      -0.73930353664961
H         1.02463587686712      -1.04140225134056      -1.33895853530187
H        -2.92791572376876       1.27351290362174      -1.64216842060288
H        -2.63036013787303       1.40437750307200       0.09295747276523
H        -2.61643405305034      -0.90891300070484       1.50608700380957
H        -2.87218508296875      -2.38529742673140       0.58315074051094
H        -1.34029189129978       0.70404268236695       1.64547899232290
H         0.21304204584307      -0.00235726230762       2.06442804712488
H        -4.22963283607071      -0.41525616640181      -0.27593715546964
H        -3.18067393797304      -1.15138557899543      -1.49883494397371
H         2.19542817948775      -0.45436935475307       1.43646389350550
H         1.59818761839167      -2.03248227589774       0.92934403748878
H         0.29688209420324       2.41395037021724       2.23933818204633
H         1.38524106212236       1.92575154389129       0.94234144600272
H        -0.18928127984154       2.64900211922127       0.55949659381611
H         4.04029645497496      -1.86405443667171       0.62364550397170
H         3.24847568582638      -2.06134981072491      -0.94745537386115
H         3.84379921981734      -0.46769996986484      -0.44776053499138
B         0.13212431149422      -2.02966879520918       3.48915830475907
F         0.06078606271637      -2.59710779314134       4.72487809439673
F        -1.09407404566203      -1.39303458453137       3.13368581440325
F         0.40199036757038      -2.98626179573546       2.47876229392074
F         1.14500821356275      -1.04211664200811       3.41266502590346
