32
C10H18N2O2 optimized with ADF in AMS.
N         0.22746468512577      -0.70552123391934       0.18382149899415
N         1.97444937752453       0.33713106778780       0.94206586529971
C        -1.16028886293008      -1.13589999020188       0.01318970403492
C        -1.89577149112461      -0.27223939000558      -1.01079446278594
C         0.69079411994682       0.04858528192994       1.19393622569776
C         1.25244629382901      -0.87916310448671      -0.73092308971405
C         2.82840922121771       1.20080745651621       1.77639888115044
C         2.36158060728381      -0.22617554150745      -0.25951936609615
C        -1.97827653107318       1.19550730060600      -0.60403861728531
C         2.55806452764319       2.66430544325460       1.46800736796385
H        -1.64518098632921      -1.07165239883932       0.99953829493240
H        -1.14683254434127      -2.19497786348049      -0.28670572415826
H        -1.39179621634455      -0.36737583137838      -1.98793852375774
H        -2.90684905783758      -0.69684709549930      -1.13375438469070
H         0.11976562762087       0.36754905303760       2.05620179850818
H         1.11256812303725      -1.46623465396476      -1.63140741366416
H         2.61890110107958       0.94762184144125       2.82737781279717
H         3.88580339002919       0.94272900337319       1.50883451441223
H         3.43749988594332      -0.09168298500040      -0.66839680818365
H        -0.97539492094420       1.63710818087292      -0.49584892877244
H        -2.51381703291367       1.31346668807379       0.35224504194662
H        -2.51687004686664       1.78077462347361      -1.36345902793841
H         2.86528936932165       2.88979369307207       0.43561922742213
H         3.15687044692470       3.29277106684918       2.14343300485706
H         1.49523213366399       2.93010775396762       1.59363805644132
C         7.14164374175789       0.87074345248956      -1.02025961335922
C         5.74031829578471       0.60741103425297      -0.45853700921559
O         4.88186229761299       0.16493003344989      -1.29485980701418
O         5.56008873072734       0.82959809041480       0.77315918747009
H         7.72982602462072      -0.05876047343314      -0.95984574465414
H         7.08666516559877       1.16475873270691      -2.07787989388612
H         7.65989503171117       1.63885316694681      -0.43026630855199
