35
C9H20BF4N optimized with ADF in AMS.
N         0.35235822135801      -0.27527648405416      -0.25140388490160
C        -0.54150907510819       0.50372101870433      -1.19343488017055
C        -0.37721846931647      -1.55380941427256       0.14962371702693
C        -1.91738297301704       0.79663575725886      -0.61452389185702
C        -1.74841122278295      -1.30454002364594       0.74668120964711
C         0.70090169774436       0.51777103301467       0.98631396210708
C         1.60912994774433      -0.64975065823567      -1.03710311268127
C        -2.62777883287700      -0.49462225517051      -0.20457847115234
C         1.45717006011932       1.80793611685923       0.73495944290509
C         2.70988662579617      -1.29844964408961      -0.22718855785255
H        -0.63102958587625      -0.13190802281290      -2.08830152997272
H        -0.00236934159483       1.41752394997107      -1.47888988493906
H         0.28162089941113      -2.12062228412292       0.81948167612992
H        -0.46171269499627      -2.14934204273805      -0.76864634097279
H        -2.48867495583231       1.33652640798122      -1.38829640482180
H        -1.83994808554454       1.48793582900902       0.24272001088798
H        -1.68521533556594      -0.81478673367305       1.73369973526817
H        -2.17213735228882      -2.30675069445188       0.92136481840499
H        -0.24156091157292       0.71918297572685       1.50788409942032
H         1.28179810414728      -0.16969339624757       1.61646639598863
H         1.26341116223002      -1.35979529695831      -1.80250553066399
H         1.94443689058971       0.27976788914820      -1.52142808388519
H        -3.60353550922070      -0.26882543085929       0.25382130847354
H        -2.82783006391008      -1.09939121663255      -1.10719985214919
H         1.67871831862960       2.26872915401299       1.70948208262018
H         2.41625654301275       1.64254941779822       0.22597189984649
H         0.87109136327412       2.53748828664532       0.15840168434889
H         3.49772994678562      -1.59167889163656      -0.93794758851693
H         3.16389498939371      -0.62092342564392       0.51003677463077
H         2.36966133996093      -2.22979517045755       0.24897925541223
B         0.63711320383773      -4.50184523126759      -0.60972560248290
F         1.30625950442682      -4.07103659189643       0.59380967028956
F         0.99345218968908      -5.81000995178831      -0.93091608951118
F         1.01891697138885      -3.59719868561786      -1.67143075928811
F        -0.77234750433524      -4.37097563265679      -0.40852503168869
