39
C11H19F3N2O3S optimized with ADF in AMS.
N         0.91687141793884      -1.30633598066816      -1.28160262255399
N        -1.23936536940602      -1.07990707385120      -1.25854229026875
C         2.26280844720355      -1.72470743710336      -0.87903514385683
C         3.25108750422255      -0.56917626874452      -0.95162738224543
C        -2.63090702926279      -1.14634076775698      -0.79643979962483
C        -0.17418684467472      -1.41438702834717      -0.51947117538395
C         2.87686536549417       0.60135865110964      -0.04496255792634
C         0.54171502720455      -0.91021761764844      -2.54826980296197
C        -0.81381065773321      -0.76059086026942      -2.53088547858128
C        -3.15625950740727       0.21166819097593      -0.34531704283656
C         3.87115945732325       1.75455937970571      -0.14435919708542
C        -2.38461585576689       0.79739826065480       0.83218265214757
H         2.17238953706018      -2.11513472207739       0.14443061671030
H         2.53667363627502      -2.57508225394353      -1.52089830465499
H         3.34099080838516      -0.21967236886892      -1.99616266321381
H         4.24459738482060      -0.96197813524522      -0.67385009367577
H        -2.64146496886318      -1.89866282517207       0.00724071756615
H        -3.21921928430591      -1.55758511740138      -1.62903034566132
H        -0.21543928989682      -1.82273688351459       0.48184731328120
H         1.86667013141260       0.96060828448045      -0.31036652389863
H         2.81710861173911       0.24404163168292       0.99945720160352
H         1.25620488087842      -0.80757148576336      -3.35401652136562
H        -1.50937028237523      -0.49589966151057      -3.31671847357240
H        -3.14410321269810       0.91325683905812      -1.19830664139938
H        -4.21530446887867       0.06805715021531      -0.07091803817754
H         3.91598088087331       2.14587354231744      -1.17356865443167
H         4.88531028962726       1.42575752644655       0.13299240023155
H         3.59089555848325       2.58488853256910       0.52014995630654
H        -1.33165625838712       0.98409984312631       0.56861753909858
H        -2.40607868751411       0.11245151712701       1.69492358662465
H        -2.82115367529132       1.75591455204887       1.14902755961517
S        -0.71838385582871      -4.67630274747461      -0.70227806089497
O         0.44494305441125      -4.11069324971756      -1.41624233080725
O        -1.32909380382902      -3.74590620670973       0.28461006311716
O        -0.61379522847618      -6.06787294758419      -0.27149009043677
C        -2.02955753576835      -4.74033074391683      -2.05919436081987
F        -1.79420014092293      -5.74569834287129      -2.93652442776090
F        -2.06346158250095      -3.57101171157819      -2.78911352719526
F        -3.27686198096556      -4.91400032507946      -1.54199836041087
