42
C10H22F2N2O4S2 optimized with DFTB in AMS.
N         1.11327927759754       0.08550451063294       0.14581094413219
C         0.88260679613223       1.55258315355114      -0.10055184208232
C        -0.05651603766483      -0.70075227807706      -0.35580919254164
C         2.34600131834718      -0.29072495047223      -0.63661283048440
C        -0.43456238181222       2.06119980660917       0.46525904661386
C        -1.37865214433984      -0.23657704096869       0.24517746326554
C        -1.61513684231546       1.24319489624463      -0.05170143163045
C         1.34849074327494      -0.16077007108915       1.59431105687225
C         2.86976937077448      -1.70145394826636      -0.38793918426215
C         4.02402565249301      -1.97662713474930      -1.36116966524476
C         4.66531115293013      -3.33448879934661      -1.08631685578302
H         0.91618597223189       1.70102049129614      -1.18230674177970
H         1.71396545096014       2.08917935022250       0.35564222651356
H         0.11992372178525      -1.75196324756287      -0.11935148903698
H        -0.07884136579369      -0.58109713307718      -1.44268108220904
H         3.11705198686902       0.43119776387465      -0.36579666082149
H         2.10216329139371      -0.15460121896194      -1.69303286643660
H        -0.53493352815315       3.10342690772164       0.15286047836969
H        -0.41584462699701       2.04569088388215       1.55804599623401
H        -1.38925244886251      -0.41263508232095       1.32419516366897
H        -2.17288812896183      -0.84163147600925      -0.19978014682557
H        -2.53824505382892       1.57313727422764       0.43002580426468
H        -1.72253679784861       1.38737856377298      -1.13158726970047
H         0.55474672336508       0.29710703155064       2.17767180879788
H         1.36490810317370      -1.23173511508128       1.78130379025373
H         2.30033921189646       0.28823571159327       1.86684686781493
H         2.08406071804748      -2.44894304556395      -0.53332861440606
H         3.24088619791842      -1.78936500407236       0.63641151394680
H         4.77625771872182      -1.18903539040499      -1.25790892879082
H         3.64591465218876      -1.94867094413308      -2.38829259656291
H         3.92575267262362      -4.13289978946469      -1.16479030285332
H         5.09429447134951      -3.35759093494537      -0.08420234578676
H         5.45819314470209      -3.52120673604457      -1.80959470474713
N         4.85212565184389       3.41715979047633       0.81180916419056
S         4.32592746043659       2.38515776725035       1.88238450857598
S         3.98527909467905       3.60424681896577      -0.50633068794521
F         4.51860007033977       0.89908614076639       1.17233102687333
F         2.57172391911255       4.23102906429542       0.01820269101001
O         5.22737213216531       2.35483683920829       2.97947268026356
O         2.91073808040490       2.39120757566953       2.15148534091343
O         3.56201620763520       2.39427352926034      -1.16293421612244
O         4.57229393278440       4.63235140193999      -1.29020969182176
