39
C11H19F3N2O3S optimized with ForceField in AMS.
N         0.36294850121799      -1.61155681092059       0.31570354131293
N        -1.76444834079801      -0.96257704194960       0.27236906986083
C         1.76397603739826      -1.72215921950913       0.72020895664783
C         2.64617404974591      -0.74034113646380      -0.06295326156091
C        -2.99916764055086      -0.25912066133423       0.61896429574093
C        -0.61786009942275      -0.96941870974298       0.98007051014848
C         2.24037324191834       0.71919113035876       0.18827201023602
C        -0.18311179400726      -2.03225863991205      -0.84323702888236
C        -1.50376911930725      -1.63214351391760      -0.86893732924145
C        -3.20917211185234       0.96722544215585      -0.27974697090659
C         3.18921095451567       1.68813119108506      -0.50884579315621
C        -2.05230819915868       1.95959404044026      -0.17399852714011
H         1.86355777097998      -1.51859235868870       1.80914060166532
H         2.11737107547121      -2.76071100633663       0.54152489917426
H         2.58156298340451      -0.96721343239288      -1.14965755883177
H         3.70104289144926      -0.88736116817973       0.25704752113900
H        -2.96644807021648       0.06837126932334       1.68169319279422
H        -3.86105466995723      -0.95172370783246       0.50792303715304
H        -0.48235063501035      -0.46294406375830       1.92773232665152
H         1.21505774414829       0.89554707262515      -0.19898001501444
H         2.24652843529449       0.93034477511446       1.27992390767516
H         0.34508278472256      -2.56310979859209      -1.62438249387298
H        -2.20938645908681      -1.78874320119190      -1.67426647515628
H        -3.32401050841459       0.64671470488881      -1.33760746441114
H        -4.14672785443665       1.47905847190612       0.02733663610015
H         3.18741821395404       1.50764980470480      -1.60497573648369
H         4.22108758483184       1.56735385005512      -0.11613742835437
H         2.85696653165272       2.73104581379204      -0.32049255178547
H        -1.12260394799074       1.51501681460530      -0.58519510841204
H        -1.88449272731921       2.24060631453235       0.88587359915678
H        -2.28737445995901       2.87492772127713      -0.75640417330661
S        -2.22996525376150       6.00793801561732       4.27995382544953
O        -3.38249112219608       6.61712671105690       5.09135098660440
O        -1.18385622311864       5.67650303822184       5.35409208831727
O        -1.62220232702218       7.22549876854321       3.56853642966096
C        -2.68486511115830       4.62672618885712       3.19326764566078
F        -3.61642450643048       5.05285059054279       2.26631167291185
F        -3.22237030373658       3.60100406305416       3.94664485986149
F        -1.55751042389306       4.17372915516476       2.53759751279367
