52
C16H30F3NO2 optimized with DFTB in AMS.
N        -1.02296903820814       0.84732025441059       0.31457920011266
C        -0.69407832805903       1.83024680967399       1.41466330399199
C        -2.04629801674962       1.54176890136212      -0.56999521073405
C         0.18864058998003       0.52635322243484      -0.50277299969978
C        -1.61233458886695      -0.38177998511923       0.95011373175512
C        -1.84131425989719       2.82887749397626       1.41429146849441
C        -2.13923420708784       2.97606811874519      -0.07187286412308
C         1.31161037684065      -0.15253126976226       0.27994294215210
C        -2.08408342574634      -1.44718480869794      -0.03469347632287
C         2.55756097431736      -0.26911402593375      -0.60607467167924
C        -3.00247213569836      -2.42515431172959       0.71120044043447
C         3.69903712382934      -0.96747758368703       0.13999201260640
C        -3.66773564086202      -3.40747957089285      -0.25613356665216
C         4.94283374890651      -1.08765963479310      -0.73825498654599
C        -4.65455719423608      -4.31269230487443       0.47861221322501
H         0.24579154579958       2.32635553089771       1.16019930954421
H        -0.57581918998377       1.29524747114015       2.35621945964651
H        -3.00604469511656       1.04199941367424      -0.44372496156657
H        -1.73605864947380       1.46334924707703      -1.61148940616643
H         0.54391532742517       1.47112838103555      -0.92386120336795
H        -0.13466534884971      -0.11894783845497      -1.32296605612882
H        -2.45998137044577      -0.02672223312412       1.54469452287430
H        -0.86179049055964      -0.79456209303709       1.62729205698348
H        -1.54411605438988       3.76711339548598       1.88314062395487
H        -2.71470666023086       2.42200084533724       1.93170886757512
H        -3.14058465627717       3.37008605161795      -0.24545986428271
H        -1.39863524365329       3.61454146954575      -0.56189409545306
H         1.00266833006791      -1.15256915720396       0.59432124835004
H         1.55553654606476       0.42473810865785       1.17578488954721
H        -1.23254357389266      -1.98305343101310      -0.46636410452255
H        -2.64694142667539      -0.99046542643173      -0.85186404165019
H         2.87918653559005       0.73082095696850      -0.91637884095741
H         2.30851610069400      -0.83607828689940      -1.50928572978269
H        -3.77534125779141      -1.85272727881813       1.23355629222026
H        -2.42252264028221      -2.97172625824587       1.46251679336917
H         3.37247418604584      -1.96567042576898       0.44975686308310
H         3.94292110007735      -0.39919527580736       1.04375502147240
H        -2.90204839317637      -4.01543121337605      -0.75136182859407
H        -4.20235634342603      -2.84400008729346      -1.02733939036722
H         5.73983205716809      -1.58657806335053      -0.18724603864941
H         4.72310420189661      -1.66860609627326      -1.63480117318194
H         5.29419045936703      -0.10046376318356      -1.04103312425809
H        -5.11555047048331      -5.00871368833734      -0.22249594738205
H        -4.14653386812118      -4.88591142835892       1.25585476113911
H        -5.43820756920671      -3.71353962646142       0.94289132965614
C        -4.86729705659664       1.06919020607997       1.11044768731022
O        -4.86069337046184       2.19722677047526       0.63222490477308
O        -4.23002699872224       0.56633243914030       2.03837552473626
C        -5.76407694120747       0.00776647829573       0.28473296576881
F        -5.01513963201068      -0.40886069190349      -0.78226763643330
F        -6.90152494129316       0.49377574670493      -0.21646360919633
F        -6.06973374173096      -1.10463154220413       0.97295601772154
