44
C12H24F3NO3S optimized with DFTB in AMS.
N        -0.39147302461465       0.15517455599860      -0.32830516668397
C        -0.31685017411718      -0.75241033096624      -1.52209579577557
C        -1.76793798528087      -0.09458727744362       0.20600235910268
C         0.63191340760311      -0.21705648200219       0.70610712499770
C        -1.70176103136576      -0.69545442084739      -2.15510880909509
C        -2.65643236908918      -0.28639436782496      -1.02196378249593
C        -0.25303274499781       1.58276566952310      -0.78517284147918
C         2.06799679312634      -0.07618762644126       0.21410151510898
C        -0.17945710150774       2.60342364666017       0.33832182983675
C         3.05921138578389      -0.41767982678365       1.32967797137481
C         4.49270311214546      -0.22330787669901       0.82324733358059
C         5.51821884845546      -0.59647557822574       1.89082984975060
H         0.47240199856365      -0.42147683791748      -2.19476209959481
H        -0.08754337170872      -1.75652315018539      -1.15959681979228
H        -1.73017723550774      -1.00725474535398       0.80498937616702
H        -2.07655621311124       0.73497748031660       0.84148938968212
H         0.44822735494424       0.41061730693672       1.58204146483088
H         0.43196642035663      -1.25611609714594       0.98372826210474
H        -1.72596743887761       0.03690358891384      -2.96421628994722
H        -1.96511641740670      -1.66898126012610      -2.57096616589863
H        -3.40257234558244      -1.05803067418520      -0.82478302764662
H        -3.18268207730331       0.63755683910589      -1.26950499079711
H        -1.11425571728359       1.79061574144942      -1.42264774283385
H         0.64647034991616       1.64236129074375      -1.40301735704743
H         2.25910740336839       0.94183084073086      -0.12903256163403
H         2.23546479720344      -0.75046260145575      -0.62641911111296
H        -1.01284963926206       2.51745280021457       1.03511920922546
H         0.75502501814937       2.52525881311562       0.89102622238969
H        -0.21780745535345       3.59230785853103      -0.11845035766868
H         2.91283289792233      -1.45617844510401       1.64794313593172
H         2.87971085953143       0.22744827331301       2.19786901991734
H         4.64797388996426      -0.83825376900446      -0.06773366919733
H         4.63054459550450       0.82148627418643       0.52850702200193
H         6.52642262596807      -0.45843145221376       1.50060866452482
H         5.39913399704021       0.03151397135215       2.77547015982138
H         5.40008719990968      -1.63986136572863       2.18785224475012
S         2.79918276255266       0.37125728747457      -3.03009908924797
O         1.62759598311588       1.24145066325630      -3.13382859171807
O         2.44769759067099      -1.03525599962350      -2.88630753292382
O         3.80628241604893       0.84155385698349      -2.10182251442204
C         3.58590524574282       0.48403615336155      -4.69789631076880
F         3.94335481709417       1.73468899497410      -4.96381000011342
F         2.73280128292365       0.08577921490209      -5.63682522990773
F         4.66625175986446      -0.28362196576562      -4.76329997319674
