36
C10H20F3NO2 optimized with DFTB in AMS.
N         0.01695633274743       0.25742641098193       0.01917752869395
C        -0.78207208538626      -0.13589489274328       1.22889982946183
C        -0.89071400719641       0.69358402304514      -1.11182269084837
C         0.81905653064927      -0.92723065982449      -0.45247309934904
C         0.92301497821241       1.40379311989795       0.39538483191514
C        -1.82305312747742      -1.22106385442751       0.99453694326920
C        -1.91444323148034       1.75998619804809      -0.75975440636806
C         1.83424330285015      -0.62012301795406      -1.54458661460354
C         1.92025692773379       1.11202643082666       1.50426232602730
H        -0.07253573755566      -0.48122997021064       1.98373828948137
H        -1.26493126691145       0.77213237341323       1.59645748672410
H        -0.24676861547373       1.07779793380953      -1.90496174142155
H        -1.39159410500646      -0.20545146759139      -1.47879130462051
H         1.32481619604103      -1.34673114761298       0.42093841864877
H         0.10348780572371      -1.66556417730855      -0.82114187804367
H         1.45676852920155       1.69255235200564      -0.50808617260409
H         0.28519221923940       2.23914727567322       0.68616193427167
H        -2.33295815898309      -1.39427923652285       1.94231730525672
H        -2.56744519092465      -0.92344638573650       0.25943673945954
H        -1.36687313317248      -2.15773809655719       0.67876763214732
H        -2.36110440668546       2.07737099830094      -1.70210863771959
H        -2.69864945749210       1.38691950777066      -0.10233212409545
H        -1.45079388788603       2.63868077112299      -0.31642206238879
H         2.24631809088224      -1.57048980749394      -1.88412339288166
H         1.37948478291419      -0.11923117126020      -2.39617207278223
H         2.65307921683223      -0.00516430771777      -1.17833616004323
H         2.54711144669468       1.99854899187872       1.60208461023713
H         1.43408500321431       0.93557828520719       2.46269258169960
H         2.56532428790582       0.26661771622735       1.27070867093492
C         0.58832658109611       3.49452628300167      -1.97388622839727
O         0.31090738449905       3.92346048885825      -0.85648226901037
O        -0.08570813491449       2.97173566926761      -2.85320132343326
C         2.18940008730652       3.46146046004084      -2.27043401583312
F         2.55025001093420       2.15294670780764      -2.45986102682387
F         2.91707125653997       3.87734285521535      -1.21853108856645
F         2.61446224622800       4.13626910436076      -3.34169511079440
