38
C12H19F3N2O2 optimized with ADF in AMS.
N         0.39383435455258      -1.14930372752640      -0.41325094170151
N        -1.63657832852504      -0.39250019548233      -0.57210615923105
C         1.73431275352185      -1.44654912475184       0.11449793140068
C         2.69706363012916      -0.29485714830114      -0.15003853570260
C        -2.89759591264700       0.29334666331500      -0.25925692294124
C        -0.62583686251755      -0.61910435634185       0.27750293216568
C         2.41530753503621       0.93154011165411       0.71254738785374
C         0.04030318449272      -1.22546551067231      -1.74174845451410
C        -1.23457089315925      -0.75144650408261      -1.84088326694448
C        -2.77861013594655       1.81154059276386      -0.38212526178518
C         3.36103282198933       2.07868151660973       0.36740937441431
C        -2.00077210364667       2.45061861816966       0.76142235974864
H         1.62015507096222      -1.65169313091511       1.19143678276839
H         2.06288252755493      -2.37645715333580      -0.37356522080256
H         2.61224821082298      -0.00355435186029      -1.21537586852459
H         3.72078470751680      -0.67090408620416       0.02864250371994
H        -3.19250622279169      -0.00994434750133       0.75855579244550
H        -3.64466088200422      -0.11082834200131      -0.95861670170969
H        -0.62918952024956      -0.41063706706729       1.33927091261115
H         1.38817127702211       1.27270337085137       0.49989458566966
H         2.49483646628467       0.66744121747184       1.78557685033170
H         0.74311397715946      -1.52710528925637      -2.50816412254671
H        -1.85902949764336      -0.58609073108133      -2.70981705904655
H        -2.27685912729359       2.05749941068091      -1.33282835189513
H        -3.80774660403775       2.20938419588548      -0.42180462966266
H         3.21230859058999       2.36750303119837      -0.68465239775935
H         4.41540386052578       1.78765939449138       0.50416406317470
H         3.16499304696741       2.95980489376681       0.99717342589593
H        -0.95372411989693       2.11615134714290       0.74754792007481
H        -2.45892333844855       2.22387450264521       1.73929139253793
H        -1.97922070411688       3.54394158065531       0.63924577442975
C         0.56748249537968       1.63095957882890      -2.61548219959040
O         0.14021946132429       1.84371105454737      -1.45416355989624
O         1.50889854457594       0.91925016157045      -3.03319213500861
C        -0.29540786635629       2.29350097809354      -3.75168036637551
F        -1.09931916777249       3.31174056485147      -3.31500988395540
F        -1.15657905522217       1.34093842402574      -4.28823580904356
F         0.43479885856744       2.78330198996204      -4.78857663540539
