59
C17H21F18N2P optimized with ForceField in AMS.
N        -1.12067666957814      -1.72502256511000       0.22961812527462
N         1.10168114191257      -1.70623821960801       0.29776802183755
C        -2.51253601057228      -1.45722628172604       0.58567824068061
C         2.46378584472858      -1.41084468374145       0.73908317734131
C        -3.02632342327777      -0.19365628647355      -0.11789626652985
C         3.05911883860331      -0.23694996778604      -0.05143052159507
C        -0.03365800684162      -1.46229074170910       0.98041997742513
C        -0.65884302461299      -2.15836697904052      -0.96032538190920
C         0.72066445473415      -2.15103903743691      -0.91682014423324
C        -2.26788574016323       1.06173666011253       0.33725003710404
C         2.23315279961601       1.04668685786984       0.11797659907194
C        -2.84779016893715       2.32199343661716      -0.29576320644720
C         2.88468301708598       2.22488300779715      -0.59808610558101
H        -3.13963145886164      -2.32618949763897       0.29113701720604
H        -2.60799224898550      -1.33407178454277       1.68716685747806
H         2.46817469638033      -1.16288959613934       1.82373212280357
H         3.09819788819185      -2.31198599904136       0.59764465224402
H        -4.10650731132692      -0.07599030585954       0.11732121007851
H        -2.92636959182725      -0.31501135720462      -1.21886528712529
H         3.11550242178815      -0.50666647585670      -1.12871389278828
H         4.09506488340492      -0.05955855718184       0.31106750321625
H        -0.06829681459156      -1.03954050027246       1.97727033062895
H        -1.27737082476198      -2.42479380849857      -1.80758226997336
H         1.39370333119011      -2.41134177977296      -1.72360378830696
H        -2.32337385218713       1.15636731721224       1.44368593409671
H        -1.19984348401461       0.98289703796991       0.04491025798723
H         1.21787861021618       0.89859276524745      -0.30694853737438
H         2.13120235215725       1.29127651599960       1.19780387040469
H        -3.90592994477294       2.45710819821005       0.01337738080291
H        -2.79207232107077       2.25818808175000      -1.40342184872703
H        -2.26456037425024       3.20606015176850       0.03856331130632
H         2.98368412064655       2.00945360140746      -1.68347454259614
H         3.88865864708162       2.42970614070692      -0.16973699603254
H         2.25318847051217       3.12980748812497      -0.47235448794054
P         1.15942846553985      -7.58499829881346      -4.25553199023422
F         2.61871650388297      -7.26035605644968      -5.10918983778461
F        -0.21812640180743      -7.54024773868721      -5.29046066265600
F         2.37555062442223      -7.98309768170908      -3.10555556723754
C         1.35280205850315      -9.21605178552276      -5.28674290144001
C         1.25385941035433      -5.66240091927985      -4.45801391554429
C         0.12396093357927      -7.80068842523677      -2.63760363846776
C         2.64807219734211     -10.04812291449742      -5.08200934232450
C         0.03491222939309      -4.84434754666362      -3.98482058100795
C        -0.09554843557989      -9.23994840217281      -2.13117995972986
F         1.30485594207858      -8.90265429897214      -6.63942250254269
F         0.28286797511633     -10.05136331510925      -5.03450776467991
F         1.42255063438392      -5.34210625305675      -5.80174460885599
F         2.35509438907843      -5.19089960006517      -3.75697572398747
F        -1.14024614824346      -7.27878038717821      -2.84805942048867
F         0.70328557411090      -7.07192364334914      -1.60737450818079
F         2.52136239057469     -11.24021717651428      -5.77348163381607
F         2.87400787517748     -10.35605735873778      -3.75775262944147
F         3.75721938655044      -9.39186227718921      -5.58475613502743
F         0.21977713955551      -3.52207042488605      -4.35017309913533
F        -1.13401272331192      -5.28470540029888      -4.57666207736771
F        -0.09437615199356      -4.87742590463236      -2.61141920625908
F        -1.00275656246791      -9.90854214748591      -2.93052716827061
F        -0.62827981702383      -9.18895351841656      -0.85475129911512
F         1.08067721036875      -9.95199836542865      -2.06543624293330
