43
C13H24F3NO2 optimized with ForceField in AMS.
N        -1.39877327063038       0.18105412052439      -0.05973072750808
C        -1.66737090578172      -1.01380589333372      -0.91892937911524
C        -2.50532310566941       0.19229798960460       0.94542832506785
C        -0.08472148772522       0.02548185089928       0.64576886306118
C        -3.03217536013776      -1.56834567880375      -0.55645638015994
C        -3.22966810836223      -1.13713797015585       0.86904604097661
C        -1.45068974260130       1.42262513890954      -0.89782707228310
C         1.14760935382033       0.04294690954950      -0.29113684856471
C        -1.16030434005573       2.72381743715722      -0.12730329998419
C         2.42081904612867      -0.35178644737647       0.46624025351813
C         3.63606920145961      -0.34533389023207      -0.46781123059528
C         4.90631323559057      -0.74484650902070       0.27482639143206
H        -1.63212973887922      -0.78858206862429      -2.00945771488684
H        -0.93158137440488      -1.83278538783869      -0.74557876117615
H        -2.15304711970653       0.37142299981938       1.98696025056773
H        -3.26091789131562       0.98298672801399       0.72972875953555
H         0.04811460317563       0.82660007454102       1.40681328911646
H        -0.08364439700834      -0.93082678064212       1.21959255506408
H        -3.81121801190471      -1.10733671928289      -1.20321777625268
H        -3.07038251269577      -2.67545139885034      -0.65517277613928
H        -2.75059690183948      -1.86880143663151       1.55661741790317
H        -4.30872223015515      -1.03730963768725       1.11873159985976
H        -2.45650189267148       1.52083724407035      -1.36757760420113
H        -0.73539908546649       1.35717867311570      -1.74699906165954
H         1.29419040064022       1.06262856815936      -0.70448698201122
H         1.00358022868777      -0.65592615521781      -1.14149592153713
H        -1.78459229004067       2.80823559336059       0.78505631339997
H        -0.09056089305128       2.79087170612712       0.15680324244468
H        -1.38532268861091       3.59211976324143      -0.78166484604163
H         2.29388610975679      -1.37047226250714       0.89497930521931
H         2.59048662418491       0.36572524257763       1.29965954966232
H         3.47011822699995      -1.06126462618747      -1.30245170334074
H         3.77593918245354       0.67094093721675      -0.89760901031757
H         5.75446622243535      -0.77395039731150      -0.44023490776710
H         5.13569323890008      -0.00672461207157       1.07292633474588
H         4.79053520463221      -1.75284624172451       0.72736605802452
C         9.15491015465789      -0.90582759264734       0.74888225039607
O         8.07732370870951      -1.38521689906491       1.06365784285334
O        10.18524363418126      -1.45022592500235       1.11177870249476
C         9.22143636478991       0.34318970980455      -0.07966790224971
F         9.92470458218356       1.31583540574767       0.60653285724755
F         7.95045523134433       0.81738986177130      -0.35376777050331
F         9.86708479868218       0.07168197770290      -1.27169148209644
