24
C4H12F6NP optimized with DFTB in AMS.
N         0.09510420670073       0.09262383039829       0.42635066584299
C        -0.86689848107757      -0.88694522286666       1.00621642884314
C         1.19755443527854       0.37191308026321       1.38949285938636
C        -0.61963451834805       1.36081300414235       0.12005139349515
C         0.67048641598727      -0.47190708924866      -0.82146056346816
H        -0.31927104710554      -1.77167651630795       1.32269309243477
H        -1.35533197967705      -0.43446755943798       1.86521332811428
H        -1.60255100614918      -1.14666714518746       0.24698323930666
H         1.93528068822934       1.00610323775830       0.90124970201072
H         0.78841751095054       0.87452266435102       2.26169337064384
H         1.64877855336346      -0.57065389758225       1.69085502227837
H         0.08523770843517       2.06899357589807      -0.31131922829506
H        -1.42247800068794       1.15400033559299      -0.58525649564107
H        -1.02810263041353       1.75631991968278       1.04842322430316
H         1.36949143336753       0.24513599512941      -1.24817072642325
H         1.18976670859926      -1.39746702376449      -0.58013330878877
H        -0.13368511953497      -0.67070026726964      -1.52767142372255
P        -0.73640654088347       0.63978411635538       4.53173974346257
F        -0.08644924935051      -0.66490080396789       3.67972645690047
F         0.69624139304681       1.43915892353144       4.29196725407536
F        -1.25542059030663       1.26905806558366       3.03221723123416
F        -1.36502752752614       1.93660351896514       5.27712271090545
F        -2.15018808114380      -0.17142040289546       4.63664675115879
F        -0.19607635255426       0.00897239447642       5.92272808174260
