41
C11H22F3NO3S optimized with ForceField in AMS.
N        -0.87771683788193      -0.11471373189083       0.08834261547576
C        -2.02291881053719      -0.22341501909035      -0.86739511655495
C        -1.17124742278646       1.10128893246224       0.90755113465826
C         0.39626272824242       0.07483937332860      -0.67975990520117
C        -2.84159376862014       1.05019777796299      -0.77775587533319
C        -2.59716295824502       1.53308900655779       0.62337503396653
C        -0.83188877201102      -1.31689123383958       0.98250535027002
C         1.66586309420530       0.16583346056643       0.20061154438783
C        -0.52497932711824      -2.64186188478301       0.26127715812711
C         2.88175225413186       0.58854507756565      -0.63231883100774
C         4.13903268797704       0.67021155199972       0.22922191278503
H        -2.70721415024169      -1.06481165121418      -0.61254640551740
H        -1.70188023467277      -0.38787937821227      -1.92005673718853
H        -1.03675825333914       0.93868689295822       2.00145413998398
H        -0.51432599552115       1.96001017511816       0.63728569139870
H         0.53917218905872      -0.75176242098188      -1.41049985563850
H         0.32266440969193       1.00144236852301      -1.29576233679071
H        -2.45978310735852       1.79752066134434      -1.50838872457169
H        -3.92219438913974       0.86394527365691      -0.96368934061216
H        -3.29377922097363       1.02458764644931       1.32625611980926
H        -2.72202089223212       2.63517378341535       0.70381479628210
H        -0.07760473921468      -1.18146053405134       1.78852280874166
H        -1.80716570795915      -1.43451710520149       1.50870853986097
H         1.52104139734493       0.89819102068191       1.02225661363821
H         1.88271762481302      -0.82484672816895       0.65242969649669
H        -0.60694343309407      -3.47710679479749       0.98801610331415
H         0.50771162151034      -2.65517099755592      -0.14141287208310
H        -1.24250667039570      -2.83465166987752      -0.56096404848460
H         3.05059584448285      -0.14793993920534      -1.44812167984559
H         2.69584087063593       1.58476315454586      -1.08970218966214
H         4.35937010870031      -0.31811330682124       0.68622654872777
H         4.00674250201824       1.42457815263480       1.03401738926156
H         5.00312131753415       0.97073682272802      -0.40001376843328
S        -0.86425162731694      -2.73087794837905      -4.19703465769040
O        -0.25295740295967      -3.49719269800130      -3.01560922922577
O        -0.12229295021095      -1.38690723021913      -4.16347458827499
O        -2.26829226515483      -2.37000393883006      -3.69087220589755
C        -0.81821241722400      -3.60359715999879      -5.78539142221823
F        -1.58397051684868      -4.75041566513576      -5.70258917270359
F         0.48658913020910      -3.94221887901822      -6.08714556020902
F        -1.32244366049872      -2.78396703952561      -6.77644423724129
