28
C8H18ClN optimized with ADF in AMS.
N         0.06894083459892       0.07924734980245      -0.08227186689627
C         0.89304746546083      -0.78252645978198      -1.05451485543853
C         1.07890734557044       1.02122126853167       0.59539818008260
C         2.35107201269082      -0.34998882976915      -0.89263441837612
C         2.39609924132319       0.28393650324783       0.49796854626323
C        -0.57678983699116      -0.80632326161807       0.97568098094156
C        -0.96574440209179       0.87068169673980      -0.84193809180353
C        -1.64072997844778      -1.73886488181367       0.43818594419349
C        -1.81601354537903       1.76194917471531       0.04076629594478
H         0.49762440007861      -0.64298765389372      -2.06914175469193
H         0.74605235516695      -1.82745379798606      -0.75827851610575
H         0.79522911996926       1.15243896918934       1.66701176063642
H         1.08019129050242       1.95110712641332       0.00638076550127
H         2.61707501784095       0.39266148050811      -1.66245291751716
H         3.03019536202561      -1.20858394025281      -1.00217313383099
H         2.42979582175211      -0.45256820868284       1.32027940341713
H         3.24553593720424       0.96722370731817       0.63858106522012
H         0.25238422652395      -1.33118228234238       1.47416269346948
H        -0.94759382967019      -0.14418648096392       1.77115588770324
H        -0.40269167673651       1.46347989423527      -1.58043627387233
H        -1.58541526627159       0.14599174881390      -1.39038051976793
H        -1.93720770474248      -2.40215819458997       1.26489090083896
H        -2.54580495482515      -1.21034740792374       0.10311583117134
H        -1.28837658974250      -2.37829631586313      -0.38619057584029
H        -2.48834467483619       2.34935959381765      -0.60203299105619
H        -2.43716271704220       1.18122193877279       0.73594358720278
H        -1.20537363681265       2.46075982931934       0.62947395878146
Cl        0.93059995638093       0.07747358235650       3.61983510772918
