35
C9H20BF4N optimized with ForceField in AMS.
C         2.67746094931420       0.42568287099668       1.57544759650761
C         1.61294909044324       1.34099683931187       0.99010874442400
H         1.37781199121866      -0.81942141750692      -0.87113460735537
H         0.42053804454915      -1.66305018178365       0.38917374713249
H         3.19612560068692      -1.33973224371124       0.41306195834783
H         2.18270199159556      -1.65988228473973       1.87813113492119
H         2.61713439808012       0.42901561282921       2.68577084774277
H         3.69529366877786       0.75273544739618       1.26827497643080
H         1.31668890761110       2.12625115448269       1.72358474255102
H         2.07090358796296       1.86801251380098       0.11968572883295
H        -1.22981827993885      -0.44619435196886       1.50441116741406
C        -0.46057843488041       0.32746952082053       1.71527174001006
H         0.08216295559465      -0.00405830020124       2.62822272116948
H        -0.98007573564315       1.28240600976886       1.95186684384058
C        -0.21244835938475       1.16487183828912      -0.59493651337595
H        -0.36264735919992       2.24362930186608      -0.35481355628861
H         0.44485940088877       1.15283873146918      -1.49456684846705
H        -2.32871706649280       0.70969994587188      -0.15692157577993
H        -2.93675399206131      -2.14733852398130      -2.62905805731690
C        -1.61250056375208      -0.79363791670095      -1.56844589056843
H        -0.79089830537746      -0.91528904136764      -2.30656048539634
H        -1.47844254295643      -1.52779648483815      -0.75052925838354
C        -2.94207927628794      -1.10261581385660      -2.25331322574420
H        -3.10314510423253      -0.41838390521295      -3.11311288842363
N         0.46573828033726       0.50062914191905       0.56538600596654
C         1.08988125285071      -0.79538314585349       0.20416876957621
C         2.35927592403007      -0.95470193204109       1.03617288391870
H        -3.78191906533895      -0.98770573379775      -1.53500045844908
C        -1.60949046101303       0.63144552496289      -0.99865367847256
H        -1.98917943277052       1.31793920065968      -1.78783567620014
B         2.23568720534588      -3.84555284947472      -2.58662523277645
F         2.29583367434160      -5.26120238961340      -2.68463124626756
F         2.40430239358742      -3.45946128004523      -1.23111785625155
F         0.97449806941593      -3.39074913776247      -3.05572943578660
F         3.26917287059809      -3.27237431038748      -3.37446979388238
