45
C11H24F2N2O4S2 optimized with ADF in AMS.
N         2.52148776698608       0.16219448467649      -0.06179112474656
C         3.01337797577415      -1.27062676582047       0.04784714192534
C         3.39269148909019       0.71496332697165      -1.16750503463181
C         1.05795126292835       0.22719905127848      -0.43877272891433
C         4.52866539528528      -1.16798307935463      -0.08972151460356
C         4.78174918917820       0.12464338111988      -0.91176552896325
C         2.77878260150726       0.90892850907692       1.21471983948612
C         0.12747114410463      -0.38869226981195       0.58785861253219
C        -1.29730568703097      -0.49685966771683       0.04300869466415
C        -2.24686143960222      -1.07953902425141       1.08850059339860
C        -3.66242951210502      -1.29213846516081       0.55970576854202
C        -4.59270354207227      -1.88266021770596       1.61659541893097
H         2.55298895585987      -1.81305879170973      -0.79187788396457
H         2.67509180841483      -1.69210975635636       0.99751042992356
H         3.33713498642572       1.81213315246045      -1.15387107594537
H         2.96319158507484       0.34166855252860      -2.10935496133996
H         0.97882755543919      -0.29782866455223      -1.40492849601102
H         0.82713394033587       1.29247869936934      -0.60564083707883
H         4.92194994877110      -2.06810679912615      -0.58113316538250
H         4.99360092359318      -1.12675777851082       0.90464250911505
H         5.41658794747304       0.83073842237899      -0.35702319714376
H         5.28366273509896      -0.07707098461186      -1.86883596993598
H         2.26132989358810       0.41368751336574       2.04288593776568
H         3.85498838989732       0.89818352557505       1.41834563211871
H         2.42236844042540       1.93861120179787       1.08455724651047
H         0.47458043579234      -1.39856607375916       0.86172004579058
H         0.11931303257138       0.20424370749482       1.51454203400820
H        -1.30213113938619      -1.13875637571456      -0.85821799647449
H        -1.65982081321815       0.49924582526231      -0.27507520074251
H        -2.27264786760509      -0.41094408890678       1.96815619182683
H        -1.83711832120348      -2.03772244197355       1.45592681755433
H        -4.06943512206751      -0.32875455757355       0.19873543586903
H        -3.62430652513997      -1.96260487740905      -0.31921604154106
H        -4.66460341832567      -1.21536444093876       2.49052322072030
H        -5.60846831729532      -2.03943099404492       1.22376808947432
H        -4.21075612718510      -2.85274312129022       1.97258930447232
N         2.54131712616645      -1.56127144032785       3.33043934477561
S         3.27100475469494      -2.99689667782018       3.30925397623995
S         1.06997526850806      -1.38099742887832       3.96184886328422
F         2.44903750630336      -3.78312089158363       2.07564112611649
F         1.30099598845248      -1.58555396540461       5.57009171687806
O         4.58804018198557      -2.78567523898973       2.73298829880706
O         3.07297859870163      -3.84438709799482       4.46295993751309
O         0.09466076908890      -2.39062707083134       3.59537390177621
O         0.74265439942028       0.03091553907364       3.81267694630007
