34
C10H22ClN optimized with ADF in AMS.
N        -0.48396600702883      -0.15801496183726       0.08082844389286
C        -1.32757026349843      -0.73909045618332      -1.04705173507460
C        -1.51747552605958       0.19296306221004       1.12592763396937
C        -2.56040520700155       0.15651789434697      -1.09046103029289
C        -2.71009633886216       0.74523310901780       0.34011873568673
C         0.21791707838217       1.09654460412728      -0.42835882450660
C         0.48828318717531      -1.17689870427492       0.62047731875520
C         1.22105216403367       1.70737684826527       0.53212271998359
C         1.54483215849577      -1.63528943018941      -0.36704277590991
C         1.75724257831985       3.00883462282556      -0.07075764086196
C         2.39159091743699      -2.74366919364954       0.25518682436639
H        -0.71347304030078      -0.72514505345904      -1.98301865438780
H        -1.57496583104418      -1.76656987931703      -0.73541323409829
H        -1.77292776092047      -0.74929212999860       1.63525811263465
H        -1.07725811173208       0.88797395421104       1.85348593630216
H        -2.41825892927650       0.95240350605701      -1.83766712619105
H        -3.44229351833142      -0.42355948686246      -1.39702365503687
H        -3.64968449224896       0.43967656164721       0.82362606718282
H        -2.69815861012890       1.84530755751517       0.32157139170255
H         0.67352809016475       0.80706104279635      -1.40856047490003
H        -0.58566136481526       1.81435692538099      -0.65039890301147
H         0.93982560178912      -0.73451197702804       1.52343009749367
H        -0.13438178824715      -2.02871903098281       0.94179344348610
H         0.77623303135488       1.91688524604044       1.52268188971980
H         2.06556483634927       1.01768978230418       0.69234534125328
H         2.18204758884201      -0.79277055206191      -0.67582010929637
H         1.07654167968796      -1.97391500927750      -1.30548595951566
H         2.21974902371619       2.81541212951885      -1.05070184166979
H         0.94783712540686       3.74115343949845      -0.21833910292563
H         2.51170965443394       3.46347329478312       0.58772800471534
H         2.91509983101686      -2.39820183461872       1.16186016924683
H         1.77611304951027      -3.61530042517071       0.53150706792630
H         3.15211217348652      -3.08591689161623      -0.46189927466804
Cl        0.85338380909387      -0.13528524651822      -3.39294265807068
