51
C13H28F2N2O4S2 optimized with ForceField in AMS.
N        -1.54386633951171       0.09342362725474      -0.08206653341666
C        -2.55996449439785       0.49328361987931      -1.10979502611696
C        -1.78364344796717      -1.33552179054999       0.30290525734379
C        -0.20049132659143       0.19386377370669      -0.74979616150776
C        -1.61872863978711       0.96224715902099       1.14374200650247
C        -4.01829711368655       0.27554107342179      -0.67154784673790
C        -3.22601046539592      -1.62631703091082       0.76599538845234
C        -4.24722450789838      -1.17961992111255      -0.27609608739927
C         1.02551110252585      -0.12310849070280       0.14357534918685
C        -1.27243364617504       2.44650228304908       0.93246291052109
C         2.32648837550881       0.04347697758352      -0.65332269245779
C         3.55386911971253      -0.29486074436197       0.20238207629604
C         4.84818982548905      -0.09817663722384      -0.59610041549132
C         6.07492972386450      -0.45703506385574       0.23764813641504
H        -2.41369438057751      -0.10054036707058      -2.04260525910054
H        -2.43416977816801       1.55250364807727      -1.41638081020193
H        -1.11107630747639      -1.64201905083697       1.13290591250316
H        -1.56427542401937      -2.01239556556585      -0.55484619151108
H        -0.06178649521987       1.20773199402225      -1.18756620423145
H        -0.15945259121328      -0.49991762021016      -1.62163013645537
H        -2.62926298700585       0.93743197570910       1.59480620694525
H        -0.95515408637299       0.56755306416100       1.94314987038413
H        -4.68902880925914       0.52335290519844      -1.52260959410669
H        -4.29545604283347       0.95522046724968       0.16005034063215
H        -3.43531386791571      -1.13763952374728       1.74036772415914
H        -3.33711469140811      -2.72048542834826       0.92728577358546
H        -5.27300848747898      -1.29403931781910       0.13678378027309
H        -4.16482999681208      -1.82698148151666      -1.17708516492817
H         1.06827284956216       0.56331111492077       1.01325984872858
H         0.97363393935601      -1.16813425634347       0.51214556906217
H        -0.22970002995094       2.58777298941773       0.58554520076132
H        -1.97635864557292       2.93892512371917       0.23332374923553
H        -1.36335255457993       2.96831296743574       1.90735135810985
H         2.40558531512055       1.09493300368915      -1.00838496728027
H         2.30405765698713      -0.62738476973616      -1.54050640597534
H         3.48544552766459      -1.35261147394819       0.54025778818366
H         3.57175258057109       0.36285553601793       1.09945626407929
H         4.83106983933280      -0.74091095699035      -1.50333913114514
H         4.93111891020314       0.96286371278666      -0.91841165964050
H         6.03407149758663      -1.52352499400276       0.54571353709425
H         6.99312279816651      -0.29776034153745      -0.36626280352396
H         6.12940692016462       0.18532855230286       1.14223680171258
N         1.54597700855598       5.62527629783522       1.43069187171018
S         0.01277938983085       6.10911355689309       1.12688245795827
S         2.82399392738801       6.36180696820538       0.72296508904519
F        -0.46660487559139       5.51078750247817      -0.36146401892495
F         3.03989144052857       7.87248776117510       1.41173236374518
O        -0.90196346790812       5.58224034163607       2.19493854312904
O        -0.05926298376880       7.61005540204360       1.09651534811417
O         2.56959940028620       6.52921059082681      -0.74889339049352
O         4.06114885543841       5.53617272787363       0.93258763977729
