37
C13H21NO2 optimized with DFTB in AMS.
N         2.60896841097978      -0.91428908637526       0.08162729603078
C        -1.15750362585033      -0.87702703544902      -0.49456212113097
C         0.19720346185627      -0.45174276439857       0.07671650058486
C        -2.29010748475473       0.00316070289471       0.04410944638984
C         1.32709073840107      -1.33421290404153      -0.47148578096804
C        -3.64646314923073      -0.42537430751060      -0.52472277889066
C        -4.77718551434683       0.45448716202171       0.00623856722028
C         3.10610642522440      -1.51115691814685       1.20374734539605
C         3.37256649721872       0.02646320761550      -0.69123927268147
C         4.25131607082833      -1.09798075643627       1.79042384986581
C         4.55986188774721       0.54571647372683       0.05286354203345
C         4.97626456673330      -0.01254055992830       1.19992774809456
H        -1.35147659642523      -1.92282793206781      -0.23182116288523
H        -1.12972638988353      -0.80772816901120      -1.58763582922664
H         0.39694944024666       0.59304911181552      -0.18220970143449
H         0.18276043913426      -0.52866259766337       1.16847907136064
H        -2.31447315082059      -0.06420175838343       1.13720795720987
H        -2.09615009424459       1.04814226332730      -0.22130735474185
H         1.37321111099242      -1.25953553372789      -1.56241680898550
H         1.15083965136564      -2.38008610663801      -0.20194804713220
H        -3.61913000901361      -0.36207823244616      -1.61792566255180
H        -3.84073019485834      -1.46917473972786      -0.25538141708863
H        -4.61463446186356       1.49626562019307      -0.27389955813035
H        -5.73153503597596       0.12830422079450      -0.40794096090431
H        -4.83114386714690       0.39249745651613       1.09410729979321
H         2.49496607725688      -2.30785504386654       1.61441168928247
H         2.71946494108798       0.84062035035653      -1.04372665713621
H         4.61337775198986      -1.57186605755187       2.69161565300758
H         5.08290191682137       1.36820318654123      -0.41909795806918
H         5.85561418511738       0.36726839243737       1.70856053476257
C         4.85216815728529      -2.09205387297566      -3.41308096167422
C         4.52921830743885      -1.69510314098694      -1.98683524185732
O         3.77928695275810      -0.59195019714000      -1.97561689436819
O         4.90080354764056      -2.30204101971829      -1.02206896518675
H         3.92735164814728      -2.21887096044646      -3.97310966535062
H         5.43201521140290      -1.29793293975689      -3.88071764165150
H         5.42158824164040      -3.01800742024563      -3.41588191648582
