29
C7H13F6N2P optimized with DFTB in AMS.
N         0.23365030571592      -1.00822492293258       0.05288124551973
N        -1.81915808586124      -0.38931131844041      -0.11565209947574
C         1.63827170078950      -1.22345602562205      -0.27464894091197
C         2.52423279077022      -0.17742394948119       0.40471096200995
C        -0.62350052414238      -0.31579843329511      -0.69177237762276
C        -0.42952282203896      -1.53950131537422       1.12563920810791
C        -1.72854673413212      -1.15597984481887       1.01361056350775
C         2.24847565708565       1.23578712086804      -0.10436116739830
C        -3.05574794515411       0.05919276807258      -0.73446218960739
H         1.72986122696664      -1.17570331035438      -1.36284285692882
H         1.90633133457131      -2.22739744324452       0.06286903852798
H         2.36963417167897      -0.21906534905310       1.48743608088119
H         3.56497865850150      -0.44327338010134       0.20049786867310
H        -0.40218930800707       0.17752837436376      -1.62161358022498
H         0.06562691525398      -2.14878990331074       1.86123475009577
H        -2.58223581995593      -1.36606551924131       1.63378323219850
H         1.22449205171667       1.53415299195850       0.12446765227439
H         2.39472810506126       1.28829523896522      -1.18350294404389
H         2.92851316861187       1.93947321845043       0.37455024344935
H        -2.83920287376669       0.90485036035221      -1.38356798877854
H        -3.44889607966614      -0.76285046717168      -1.33524281198567
H        -3.76789029192143       0.34040846565228       0.03935668264137
P        -1.26529058239209      -2.05066276837122      -3.48191031683625
F        -1.79271267836144      -0.47733682067128      -3.17767042624840
F         0.24653354656890      -1.59206581695925      -2.89187543060229
F        -1.70104993587917      -2.43695243870093      -1.91137835791085
F        -0.71764943448097      -3.56570360295047      -3.70520322010669
F        -2.76097617826357      -2.44680600696057      -3.99151847754789
F        -0.81221919096904      -1.60308961952780      -4.97711057145659
