34
C10H22ClN optimized with ADF in AMS.
N        -0.49910118552080      -0.19713863905029      -0.01994057823294
C        -1.43757298431322      -0.74026626186957      -1.08786121797738
C        -1.46966109478899       0.15771997910422       1.09467891496858
C        -2.67677001727913       0.15245465511895      -1.02949358738832
C        -2.68165004373240       0.76465189267150       0.39460575141108
C         0.21030494834296       1.02243802872047      -0.54680026981883
C         0.45452855389726      -1.26754473080802       0.46255544803254
C         1.22410281390482       1.64212306750751       0.40037279936658
C         1.42260480119456      -1.75795861374896      -0.59714086355648
C         1.76429116381281       2.94229571727746      -0.19085849432114
C         2.21574218924090      -2.94416893581195      -0.04864367341997
H        -0.91627520069587      -0.74089071674040      -2.05326671707499
H        -1.69555160660014      -1.76308752830439      -0.73795722519981
H        -1.74466681572517      -0.82282059296912       1.53949569705704
H        -0.96785563606444       0.81132007270074       1.81831086891901
H        -2.66065933334693       0.93802284032151      -1.80039703526194
H        -3.56578671117659      -0.47212330360281      -1.19828938256914
H        -3.58851979255954       0.48498280936807       0.94957782382719
H        -2.63620918812282       1.86408595969621       0.35571107924821
H         0.70111774245360       0.72040081027825      -1.48461058606489
H        -0.57272291902709       1.75242007439773      -0.80226426813990
H         0.98353886049227      -0.85220611322780       1.33432700773074
H        -0.21665932107243      -2.08891562477937       0.80522231017241
H         0.76117223147176       1.84771347326307       1.37938806008817
H         2.05565359858234       0.94111327364491       0.57674081945035
H         2.11698577047677      -0.96127734525978      -0.92048509227741
H         0.86036109807246      -2.08691639807745      -1.48685181231069
H         2.24800832847620       2.76330706257811      -1.16387793174376
H         0.95433074572293       3.67194914157895      -0.34393676661985
H         2.50842900948604       3.39691437628834       0.47775337566209
H         2.79064470254202      -2.65693432949755       0.84536686501720
H         1.53212518001554      -3.75858691008996       0.23413335140543
H         2.92193066929105      -3.32537571158784      -0.80004459742436
Cl       -2.26897397905072      -3.04776154759073       1.09492634494522
