19
C7H10ClN optimized with ADF in AMS.
N         0.13578951402431       0.00342183017840      -0.26618405759879
C         1.56633394726079       0.11157409155266      -0.59422668545595
C        -0.52528673163119       1.09653111655397       0.26096574714217
C        -0.44790709815577      -1.23161828163702      -0.26693320987468
C         2.46953538367065      -0.42896836367803       0.50663344632541
C        -1.95222114549359       0.98954030363365       0.35135042989870
C        -1.77677488023618      -1.38788927430312       0.00120927290318
C        -2.55724649681600      -0.22958022101103       0.26012279881989
H         1.72357226959374      -0.42269274897540      -1.54609897213717
H         1.77105116988646       1.17735236287388      -0.77442451777590
H        -0.07770209800155       2.05345727489705       0.00142250338779
H         0.20513649739428      -2.06143204369048      -0.53259845602557
H         2.31081672159967       0.13760293278432       1.43485192951884
H         3.52083744077167      -0.34351164227327       0.19237789458999
H         2.25615922507581      -1.48986890247512       0.70674717006448
H        -2.51355984948099       1.89704275798042       0.57284237748820
H        -2.22089204366268      -2.38143235203781      -0.02590973745612
H        -3.63796124878433      -0.31812079841604       0.38005959431027
Cl        0.11354841328490       1.34890927614298       2.37729964597526
