42
C12H28ClN optimized with DFTB in AMS.
N        -0.02455234781157       0.09038730045159       0.02863892563092
C        -0.87577644519046       0.64485022173989       1.13509681614680
C        -0.86585219241432      -0.45746508696904      -1.09810092777191
C         0.81723420173197      -1.03238032801378       0.57554363250698
C         0.83127006565275       1.20886339921854      -0.51645862894148
C        -1.87519743131077      -0.33339332773838       1.75157788085000
C        -1.91910633810082       0.49781763676376      -1.65342690596924
C         1.83710999597596      -1.62481849395405      -0.39617969998947
C         1.92711548056249       1.71752818776147       0.41468667121489
C        -2.72430951085161       0.40163624384141       2.78902344156185
C        -2.42623108781545      -0.06279155027908      -2.98317022050990
C         2.64591857488998      -2.70060698969145       0.32623508648865
C         2.67463846508182       2.84673727232537      -0.29632173582075
H        -1.40946986933629       1.50549723915008       0.72534609955699
H        -0.19747074040639       1.00291748797122       1.91307836412232
H        -1.33788019363635      -1.37471714822023      -0.73946327391969
H        -0.16583354812206      -0.70597419785915      -1.90358650008803
H         0.12613342672388      -1.81904908926287       0.88766324164408
H         1.32121388286197      -0.65044609533793       1.46741856191945
H         0.15488295267077       2.03208913913546      -0.75528624076316
H         1.26926727902334       0.84287981635664      -1.45365157380417
H        -2.53143001909415      -0.75131970680908       0.98539934658882
H        -1.35222964377258      -1.15925338576695       2.23994630645204
H        -2.75559060897967       0.61158349967097      -0.95653172500852
H        -1.48986785651363       1.48552608474029      -1.83391868555733
H         1.33320636197260      -2.06793172421589      -1.25617455034525
H         2.51343022802569      -0.85714807867290      -0.77313046124356
H         1.50939051263101       2.09403229794458       1.35374592479972
H         2.63706528820080       0.92270347019330       0.65371338981183
H        -3.43144750956635      -0.29226289948615       3.24152212458678
H        -2.09421767128748       0.81898907471522       3.57489875945235
H        -3.28293204987777       1.21283593950600       2.32158339365189
H        -3.18437171378425       0.60073613567741      -3.39739825761010
H        -1.60156166094428      -0.14231902785407      -3.69130702931754
H        -2.86455305781374      -1.05102237143671      -2.84101997276296
H         3.36392489767777      -3.13665362068724      -0.36661464358848
H         3.19067618983075      -2.27479231739756       1.17016205044553
H         1.99377068314832      -3.49316548749475       0.69599294168126
H         3.49303080970939       3.19994734113725       0.32990576443603
H         3.08494865922944       2.49126928307713      -1.24103576771823
H         2.00387305454924       3.68191259768738      -0.49952437602420
Cl        1.43647536538007      -0.26108351231771      -3.33471638609520
