55
C15H25F6N3O4S2 optimized with ADF in AMS.
N         2.58618049446181       1.34321332145410       1.18734311510338
N         1.12142505568497       2.05118897748100      -0.24926976866363
C         3.79566467217269       0.71000078820594       1.75264612239561
C         0.41750222863239       2.27954177836805      -1.52527181920386
C         3.43000169802564      -0.44577095849455       2.67822471182754
C         0.08077719601225       0.96722564702860      -2.22554365971009
C         2.61336317510448      -1.53075214146499       1.98359979764173
C        -0.69606106941772      -0.01139594369617      -1.34921261110687
C         2.33905781280243       1.50098305575954      -0.11965511234847
C         1.49979720735435       1.78914436985798       1.90982525326781
C         0.57696780817087       2.23013663583706       1.00590202883213
C         2.25752601305348      -2.69983052090656       2.89719811312550
C        -0.98573830944217      -1.32883485307411      -2.06721821448981
C         1.43956719194405      -3.75619276693213       2.15625148601084
C        -1.62744469971643      -2.36013537641861      -1.14351527513225
H         4.36398069492296       1.49400021745626       2.27751736741879
H         4.38608087029180       0.35918178914717       0.89430199603590
H         1.05383910829561       2.92469002978113      -2.15052341028700
H        -0.49095314604757       2.84417199880912      -1.26698054956023
H         2.89817793311116      -0.06456329987734       3.56996772365342
H         4.38285901328296      -0.86317426815559       3.04643917760706
H        -0.49756870737504       1.22440169195751      -3.13091092878327
H         1.01084244539499       0.48291791603692      -2.56318896029091
H         3.17572452718606      -1.91492061817314       1.11754211406470
H         1.68122368812467      -1.09849442460432       1.57548496445351
H        -1.64426105212961       0.44840674605486      -1.00727794441986
H        -0.10036855718094      -0.23983218487267      -0.44764491869113
H         3.01339535120972       1.18410725081486      -0.91538717331496
H         1.46871492452140       1.74684133770828       2.99055920009360
H        -0.41301913678647       2.64557019143963       1.14637993080308
H         1.69672458248706      -2.33454987445299       3.77822625048474
H         3.18830347023699      -3.15471930476181       3.28163479355326
H        -1.63982098829106      -1.13965927818162      -2.93784174991836
H        -0.03381904017882      -1.72849195639865      -2.45559737807207
H         1.99096492023013      -4.12061376417108       1.27551549433645
H         0.48573462359125      -3.33285990355200       1.80111812228832
H         1.21014550541527      -4.61635662013846       2.80252176322507
H        -2.58393309628422      -1.99431010608110      -0.73413284413600
H        -0.95782474786372      -2.58731650788801      -0.29860104730751
H        -1.82490730402097      -3.30293115604422      -1.67483912992475
N         4.33553328190223      -2.61719543538628      -1.00691639835485
S         3.72091695721350      -1.35315609862743      -1.73812727171235
S         5.88963007998286      -3.09530262187443      -1.10469318167095
C         3.65298635850242      -1.67498951249915      -3.61379033426522
C         6.81395537220751      -1.96619072387144       0.10697137508669
O         2.29979341075981      -1.29143880175076      -1.37875901547403
O         4.47505534739548      -0.08795098508384      -1.62769077510458
O         6.52324218562673      -2.84884118461782      -2.39114454801679
O         5.95579944366263      -4.39471842632493      -0.45904420058907
F         2.73349891269718      -0.81378369352818      -4.14294811427724
F         3.24601767225789      -2.93673925937608      -3.86451081332973
F         4.82865537796342      -1.45511984183291      -4.22190293177883
F         7.97433159874391      -2.55978433064675       0.46373249448598
F         6.07838786422231      -1.75773023452295       1.23907209854292
F         7.09592208377541      -0.76104619411494      -0.43455896390336
