63
C17H36F2N2O4S2 optimized with ADF in AMS.
N        -0.50581538154722       1.96781179567331      -0.17211902438033
C        -1.35412254465729       2.55964983613249      -1.28892079961810
C        -0.23401212095431       3.06744999851349       0.84855875174040
C        -1.19610871750751       0.80910637068444       0.50746587694744
C         0.81438836503585       1.54302084398284      -0.79761281934038
C        -2.65580966701439       3.15618126676475      -0.78342457939864
C        -1.50678558146761       3.69210226126465       1.39973534958276
C        -2.40317181915815       4.22378170722720       0.28173692078100
C        -1.50599885225432      -0.38223576239633      -0.38193646867692
C         1.76414145829035       0.77456589730252       0.10303717621408
C        -2.16690617418099      -1.49226303736125       0.43868421448242
C         3.06917038832656       0.50880952652505      -0.65424875516310
C        -2.50440975645400      -2.72289676723090      -0.39963415401238
C         4.10958910299322      -0.20940312347663       0.19921518961190
C        -3.16902905715255      -3.83409477162353       0.41002703478086
C         5.41982634047851      -0.44312758140252      -0.54997418665826
C        -3.49941299874543      -5.06201763855421      -0.43420037905286
C         6.47270829738107      -1.14541040158137       0.30234115083165
H        -0.72754722910039       3.33155523430447      -1.75772615424071
H        -1.51353113751435       1.76142099209711      -2.02599765896512
H         0.37466547668743       2.61544894360300       1.64348279929847
H         0.36580748486828       3.82317785785691       0.31872490123919
H        -0.54119611982097       0.51191539122209       1.33994584796046
H        -2.12271690322531       1.20136451640614       0.94320798558229
H         0.56184633410095       0.96053075582213      -1.69599089132473
H         1.28400985875319       2.47825047435118      -1.12682600240734
H        -3.15716223158833       3.60416970573081      -1.65754603451558
H        -3.33020673532057       2.36590421147755      -0.40710991319995
H        -2.04938475150749       2.98153540889225       2.04738757008369
H        -1.18538367833772       4.52331280248005       2.04976590837499
H        -3.35796611435714       4.58403920755425       0.69726725125044
H        -1.90119988428582       5.08465174717781      -0.18623871973402
H        -2.18629881221932      -0.08934536356881      -1.19913897809263
H        -0.58697981627536      -0.77512157834460      -0.84690505735414
H         1.33088955966495      -0.18732286489962       0.42761045464639
H         1.99607874316426       1.35830644139607       1.01003467245495
H        -3.09085345132610      -1.10440121550659       0.90663236077529
H        -1.49646230953569      -1.78758519282159       1.26748460871242
H         3.47707477955700       1.46582556048146      -1.01947036082302
H         2.85263936921949      -0.09247058511278      -1.55678889197994
H        -3.17131653058164      -2.42785563971092      -1.23160177767837
H        -1.57977291722385      -3.11314369899931      -0.86516610127681
H         4.31413413009014       0.38880918344590       1.10788790796101
H         3.70705238235716      -1.18030673709791       0.54767014022947
H        -2.50247212037195      -4.12412973379383       1.24294573823469
H        -4.09312243002758      -3.44202290462597       0.87316203887246
H         5.21613347352094      -1.03914872157063      -1.45842596473658
H         5.80967953109258       0.52940261667827      -0.90059630129117
H        -3.97511927020644      -5.84814986980952       0.17049061653965
H        -2.58781871182221      -5.48682432565943      -0.88475356153554
H        -4.18839413360057      -4.80284251459208      -1.25417153837796
H         6.71019974109292      -0.55276838542926       1.20069593465465
H         6.11680058705235      -2.13332696673237       0.63706496527811
H         7.40760740114774      -1.29490009296218      -0.25875172838368
N         1.48803944806390       4.75327305436820      -1.74472649871129
S         0.58586935825159       6.07718827568558      -1.65827407742958
S         2.01025218399643       4.12945399269681      -3.14059963859286
F        -0.84931997867804       5.62033497465423      -2.40393970061555
F         2.82265104153570       5.34770737720675      -3.86940951505694
O         0.19850109583538       6.21397301016677      -0.26165721926358
O         1.02280646362122       7.21905691199214      -2.42829467303549
O         0.94866221706475       3.77746163642577      -4.06740880737942
O         3.02145935777668       3.14448398571969      -2.79823826201814
