40
C12H26ClN optimized with DFTB in AMS.
N        -1.30169952293212      -0.10042704909940      -0.04125415202669
C        -1.29435928579883      -1.11429496747088      -1.14923481847208
C        -1.87675880948680      -0.87473659574136       1.10933554379164
C         0.09364165153415       0.34007391741648       0.29829344198341
C        -2.57684245677497      -1.92036526793643      -0.97283722550689
C        -2.96565147753149      -1.75353721913733       0.50424425415380
C        -2.19935324292553       1.03958440751455      -0.42191044256711
C         0.81014516424210       1.03350450169796      -0.85611548128071
C        -2.21846533791178       2.19137753718426       0.57288580175169
C         2.18337716556843       1.58039041170350      -0.42990365525058
C         3.33003581916785       0.55882801353697      -0.46311156609640
C         3.38883303451841      -0.37007802318639       0.75489243247459
C         4.71858444725731      -1.12175128706776       0.80105792980926
H        -0.42117970236185      -1.75311751487251      -0.98251268757747
H        -1.22410538588248      -0.61051848801381      -2.11301680382442
H        -2.23667786157157      -0.19280963640581       1.87843839466144
H        -1.06840880071032      -1.49868954997002       1.50225641555511
H         0.62493758025929      -0.57211156899357       0.58272531486682
H         0.02608833279420       0.99507174454703       1.16943212256841
H        -2.38675492689123      -2.96659551888816      -1.21678761371591
H        -3.37034998301738      -1.55397293302628      -1.62868076017284
H        -3.95148052845556      -1.29134732950986       0.59696349497324
H        -2.98913271598853      -2.71455016839289       1.02031242375399
H        -1.87326976623850       1.40167903772873      -1.39954779513223
H        -3.20514543244488       0.62799937927542      -0.52931472564623
H         0.93810293747167       0.33501966852886      -1.68760369043950
H         0.21045125520214       1.87476505408330      -1.21757442376363
H        -2.98973189185265       2.89291293606534       0.25527469606759
H        -2.45790195306910       1.85337212622707       1.57949506619803
H        -1.26689486752537       2.71913964625721       0.59411000704241
H         2.10784156259091       2.02473547750582       0.56863792459162
H         2.43594467929351       2.38751439545629      -1.12534415536922
H         4.26636928523980       1.12649186592408      -0.51399438000194
H         3.26092816027566      -0.03732741327622      -1.37906083640976
H         3.27134143976059       0.21905242151628       1.67109487376639
H         2.57951870491032      -1.10198315223229       0.71361945553514
H         5.55532659147157      -0.42606522365464       0.88696594990661
H         4.73339111093672      -1.79242530278374       1.65991305685184
H         4.85043683632451      -1.71537728392949      -0.10429618831671
Cl        0.63375824625185      -2.84529104418029       0.72431017336728
