52
C16H30F3NO2 optimized with ForceField in AMS.
N        -0.07490031043065       1.46861661363913       0.00282090783903
C         0.53176166182417       2.39507294915309       1.00835321907176
C        -0.75258917170430       2.36197000726023      -0.98540444989199
C         0.99844499504856       0.68439674090428      -0.69151486131741
C        -1.08154390992363       0.58826479260510       0.68057557419538
C         0.02365452654350       3.79814043137310       0.73190586542429
C        -0.28010799224977       3.78144284599121      -0.73969154361094
C         1.75314667648364      -0.31353672114226       0.21961714187280
C        -1.77203736608707      -0.43406738485093      -0.25387259297556
C         2.94582379167746      -0.93415376718038      -0.51735913590924
C        -2.88623124451482      -1.18309505276178       0.48735101013001
C         3.70888041153536      -1.90136111322147       0.39442898606581
C        -3.58200822105914      -2.18855049782979      -0.43679243807135
C         4.92037312115390      -2.49373512200404      -0.31934950424476
C        -4.66595041122968      -2.96309897786183       0.30774033653739
H         1.64223528988613       2.43299016637418       0.93043347217048
H         0.30397875300920       2.11342113989494       2.06214205311450
H        -1.86016876661037       2.36561354399061      -0.85799396484807
H        -0.56019971984412       2.07533877436971      -2.04472942733801
H         1.74049076597456       1.38711604520395      -1.13832578831282
H         0.57655137503415       0.11856685992435      -1.55151230739031
H        -1.86891564712685       1.22088502284627       1.15340128781005
H        -0.61072995650778       0.03197503414856       1.52121840531240
H         0.77843344342020       4.57381316272713       0.98523663511594
H        -0.91013513949161       3.98206017065750       1.30835380130241
H        -1.05603625222652       4.53142734267104      -1.00680507910392
H         0.64860523869718       3.97717919395361      -1.32037681332137
H         1.07447129157338      -1.13587829565615       0.52832839134281
H         2.12043116080608       0.19556980758926       1.13513094070732
H        -1.03477760544159      -1.18176243220011      -0.61313073361048
H        -2.20755028729287       0.07836620782045      -1.13721232329481
H         3.63218104428402      -0.12799953333572      -0.85610565663755
H         2.57896832420539      -1.48276902950426      -1.41312436927442
H        -3.63578189893687      -0.45268312156159       0.86444104727774
H        -2.44860150759410      -1.72188234267911       1.35704343645476
H         3.03551163027668      -2.72849220760477       0.70897511530716
H         4.05652677054570      -1.36490087546583       1.30431426871431
H        -2.83670747041756      -2.90995266283805      -0.83745764020937
H        -4.04656825080910      -1.65055588347135      -1.29184667746307
H         5.44229498730344      -3.20000876072477       0.35986335681622
H         4.60104018971912      -3.04519558103446      -1.22901045870470
H         5.62917791020031      -1.68811503156177      -0.60705406334276
H        -5.16108209538520      -3.67165514176945      -0.38885837040496
H        -4.21976449028333      -3.54125747100075       1.14467386376434
H        -5.43171258839163      -2.26603851090645       0.70989900419180
C         4.99257401267363       3.00825678964358      -0.31556324337980
O         5.13139692853841       3.03579740802924      -1.52820851049118
O         5.00506673557373       1.93692312729840       0.26877597622682
C         4.81201128412087       4.27926637609475       0.45917460424863
F         3.60160952749907       4.24654600135155       1.12521032144088
F         4.83023803924460       5.37364177287566      -0.38804716897546
F         5.83375383190613       4.40662405587617       1.38175668536931
