40
C10H22F6NP optimized with ADF in AMS.
N        -0.72077891894037       0.30542553025202       0.03425435459530
C        -1.80647562152139       1.10409134789640      -0.67704574932970
C        -1.02556252300585      -1.18024516123049      -0.10226026899636
C         0.59592480506095       0.64060283349045      -0.66300406112252
C        -3.20480493656704       0.77628165314516      -0.18365437822096
C        -2.42524215966120      -1.53942007656084       0.37249574148317
C        -3.49867621971391      -0.71583847204818      -0.33714486812014
C        -0.63631085225053       0.69540939514989       1.47125811284849
C         1.77538238236336      -0.24477156490529      -0.30802582101916
C         3.02798185816874       0.26668477866931      -1.02831334992857
C         4.24123930339649      -0.61670210306946      -0.75543838755357
H        -1.70564285917397       0.84922160836974      -1.74264342272892
H        -1.54697880499294       2.16438031693238      -0.53596792258034
H        -0.25890287234555      -1.71030478500388       0.47797777828441
H        -0.90089766428836      -1.41065216450238      -1.16999598267093
H         0.79629396861997       1.69464350935241      -0.40795230987506
H         0.39231208736772       0.56959911097186      -1.74050844580176
H        -3.90250319680049       1.37104354074692      -0.79620807058816
H        -3.35079998693175       1.10286682637333       0.86151535824826
H        -2.51207861343554      -1.43105093924054       1.46844073413868
H        -2.55947354860371      -2.61185230751434       0.15521312396592
H        -4.49380400757281      -0.95445624685488       0.06963727701804
H        -3.49977093355029      -0.97266473406705      -1.40904347828999
H        -1.57812283213332       0.46232514115252       1.97615246758495
H         0.18172849129309       0.13741741736548       1.94106526482271
H        -0.43942592292759       1.77370194621773       1.52942674449559
H         1.58268197969853      -1.27322935209289      -0.65072367132347
H         1.96756229619062      -0.26896481384633       0.77966094601996
H         3.23896108277445       1.30426406292738      -0.71140906143289
H         2.82194853120223       0.29411959151880      -2.11245900433536
H         4.06285111354681      -1.64370364374119      -1.10992717194402
H         4.46769714188188      -0.66224783354262       0.32217439876959
H         5.13335441703891      -0.23412139563229      -1.27188233269931
P        -0.65441422648230      -0.88972549120487      -4.20937424591718
F        -1.92208862587340      -1.06988333470170      -3.11163802501161
F        -0.47822631254579       0.69047364188262      -3.64890293901164
F         0.39588666777320      -1.38177294498651      -2.98706648227856
F         0.61690248700665      -0.67608939895659      -5.21288351713660
F        -0.83885473801421      -2.44679715517325      -4.67153275990230
F        -1.71320123775128      -0.36755771523882      -5.33887405865596
