53
C15H32BF4N optimized with ForceField in AMS.
N        -1.08857114919908       0.82544884741793      -0.17988554635105
C        -1.57569204178720       1.86397233657532       0.78675266507993
C        -2.06407908885718       0.73074819540498      -1.31483838346883
C         0.21057113266956       1.29423888273358      -0.77492235999749
C        -0.93029048516589      -0.48873634284899       0.53654955724680
C        -3.02227048069096       1.63968626750529       1.27544226164451
C        -3.50984364703316       0.44185432999007      -0.87966271571344
C        -3.99434006033298       1.50017359786604       0.10666708030704
C         1.41426876377558       1.37252778102174       0.19714514142634
C        -0.34334889237817      -1.64838085115247      -0.30521145008355
C         2.65931489725083       1.89420656288263      -0.53483501456251
C        -0.21547748443661      -2.91882393300397       0.54701479105638
C         3.87593084669205       1.93376122444049       0.39627199682969
C         0.36791030619174      -4.07831873687098      -0.26918047693928
C         5.11364588373653       2.44186329208565      -0.33889951533075
C         0.48294954461192      -5.34238783879735       0.57808748044003
H        -1.53431702728903       2.87729313687649       0.32500277973528
H        -0.93127450131025       1.90079014710259       1.69158482013367
H        -1.75497733565822      -0.03311940211134      -2.05839492130706
H        -2.08553631738259       1.69237715211944      -1.88000183810232
H         0.07763022586156       2.30789614557600      -1.22129141960849
H         0.50052915401586       0.64525007152460      -1.63184019181301
H        -1.90149912562551      -0.84032792951053       0.93672466488287
H        -0.29622684788116      -0.35717141368422       1.44107239821610
H        -3.33040611688303       2.51173312303597       1.89297588922136
H        -3.08538459820297       0.74806346668009       1.93323909675295
H        -3.60335430236029      -0.57338466196565      -0.44267568274315
H        -4.16433861747428       0.46572952120968      -1.77845114377875
H        -4.09083849818387       2.47844879342438      -0.41466643865191
H        -4.99766049322382       1.21553554879670       0.49045782845570
H         1.19148059618651       2.05938968152795       1.03947278194697
H         1.65280253587444       0.36824114112937       0.60449515462310
H        -1.00804766215413      -1.87793642527445      -1.16267589244944
H         0.66433409622091      -1.38750863867208      -0.68871211937098
H         2.45842935747524       2.91843567461270      -0.92071751934364
H         2.88358137516893       1.22861784816663      -1.39816370940133
H         0.44650401238439      -2.71340712807958       1.41762357266982
H        -1.22047829778290      -3.20843717020478       0.92720811330020
H         4.07909883162566       0.91166480618549       0.78236624188697
H         3.66808065189014       2.60243220645174       1.26036631587722
H         1.37798660026073      -3.80158072315613      -0.64407660965109
H        -0.28728361696621      -4.28880100154581      -1.14315744741338
H         5.98045213130670       2.45973787909200       0.35552943780703
H         5.35700708425682       1.77338670989531      -1.19275720888118
H         4.94093648344337       3.47215816003529      -0.71790370935860
H         0.91037907849232      -6.16433115446121      -0.03469850550547
H         1.15030365814135      -5.16422649031042       1.44877793104135
H        -0.51944198292779      -5.65534062348874       0.94220494055329
B         6.99900153269179      -0.31373187575967       2.99188899953995
F         6.38686721087654      -1.30227838546804       3.80759854814714
F         7.09551820012505       0.90463338766402       3.71556731181280
F         6.21558351255290      -0.11166465373753       1.82624673395924
F         8.29850602100784      -0.74659437942622       2.61675403713296
