43
C11H24F6NP optimized with ForceField in AMS.
N         2.00079639856831       0.44880664127304       0.09569507482212
C         2.24989768676791      -0.85427359289286       0.77102701297896
C         3.11493607852393       0.61284155528242      -0.88757549618540
C         0.69473461141054       0.44826877187698      -0.63262217356130
C         3.68978959628802      -1.24461886657480       0.50461731195349
C         3.98269300429437      -0.63493130605905      -0.83958908027454
C         2.04950150460379       1.55747244101483       1.08400564206931
C        -0.55062381759403       0.26945032632195       0.26796593432051
C        -1.80950170305659       0.08758038174416      -0.59040951133049
C        -3.05972576671325      -0.10807784815291       0.27558513322638
C        -4.30673654700312      -0.26668139198957      -0.60258154327841
C        -5.56294872805015      -0.46036111508034       0.24096852698323
H         1.60713346731067      -1.66322927443470       0.35310871400666
H         2.05867179267292      -0.82087380313053       1.86786380091407
H         3.76098838446060       1.49241000809821      -0.65801990560458
H         2.76011043086948       0.76800359919503      -1.93263294293551
H         0.69780690481959      -0.36642632263729      -1.39425289836577
H         0.57605465087739       1.40381829027731      -1.19367477283573
H         3.82393113367551      -2.34830017781719       0.49009090339174
H         4.35275547139751      -0.79475210670319       1.27599998645753
H         5.06225512051207      -0.39462858821405      -0.95099615356209
H         3.67340343900865      -1.33877597235044      -1.64423541699455
H         1.31827944037831       1.40683936824375       1.90649247561075
H         3.05323862237584       1.62237430271773       1.56088316926055
H         1.83284383705063       2.53341508661805       0.59456276914140
H        -0.43239244328321      -0.61431400303967       0.92957507963716
H        -0.69025398086427       1.17100121715188       0.90161631552516
H        -1.68131793248720      -0.80029045336193      -1.24878787789838
H        -1.94419572841602       0.98584237247703      -1.23327841939718
H        -3.18796018592422       0.77055389268578       0.94622661686008
H        -2.93266505149434      -1.01765877280089       0.90399131833817
H        -4.43718737073120       0.63838219546130      -1.23566268565489
H        -4.18464968787117      -1.14738028748040      -1.27053896603070
H        -5.73902087127266       0.43089371486623       0.87869526236016
H        -6.43924252752733      -0.59540742109034      -0.42763336219023
H        -5.46358716277968      -1.36078763331011       0.88363469394520
P        -5.34679064973784       1.18982523907594       4.82293955335028
F        -3.67194868044680       1.55595166383958       4.71774199620849
F        -5.55709230743505       1.74491487326185       3.21173515653637
F        -4.96996891091888      -0.40426069143454       4.30555292526633
F        -6.98398335714189       0.67467398857161       4.89230794883991
F        -5.13680448594874       0.80879964232226       6.48475174022197
F        -5.76648173186836       2.78000639427789       5.31845545017377
