50
C12H28F2N2O4S2 optimized with ForceField in AMS.
N        -0.00624151874042       0.00259477370095      -0.00619999677777
C        -0.86116130291213       0.65048374462520       1.05104644345906
C        -0.85197147738270      -0.64507184989518      -1.07131591301029
C         0.84163297313855      -1.05961557743835       0.64392978546454
C         0.84535686740775       1.06573446893388      -0.64957574731579
C        -1.91976511355423      -0.26363082273521       1.72008306373959
C        -1.92298474625377       0.26239466927374      -1.73038776752067
C         1.91269178513705      -1.71914804101313      -0.26333932168754
C         1.91458406901146       1.72170477538465       0.26334041421454
C        -2.71451917803285       0.50725811280908       2.77201992304845
C        -2.71578704669773      -0.50998682144182      -2.78263506453613
C         2.70731099257237      -2.76955432087840       0.50987126769530
C         2.71142453358967       2.77403225504722      -0.50473958419702
H        -1.37875770357596       1.54594119548045       0.64087006003774
H        -0.22412145294775       1.03727586871631       1.87216819761855
H        -1.35993143840335      -1.54984974528780      -0.66899138034226
H        -0.20816980447478      -1.01264653286955      -1.89910622558278
H         0.20025767523617      -1.88854381200639       1.01263479895081
H         1.34806898805673      -0.65524777085391       1.54825181695257
H         0.20519098317796       1.89493025742939      -1.02034607272523
H         1.35607771442663       0.66279950405407      -1.55248291466723
H        -2.64093246149826      -0.65900864257751       0.97724729634067
H        -1.43710155796468      -1.11875155646606       2.23308444650482
H        -2.64715613665092       0.64408911873727      -0.98347824782748
H        -1.45001223338219       1.12634101552256      -2.23885216793112
H         1.43943202490374      -2.23107259630094      -1.12498313742873
H         2.63429345240973      -0.97214472894972      -0.64961574118855
H         1.44132746713391       2.23127793209207       1.12621667087495
H         2.63516652254549       0.97299100712296       0.64843678970382
H        -3.45828886559244      -0.16785055525446       3.24546110625874
H        -2.03727295476579       0.89465438587222       3.56256579259034
H        -3.25396180273882       1.35755869475806       2.30345878131157
H        -3.47128984705070       0.15986547164778      -3.24504188901731
H        -2.03929402335489      -0.88326801712493      -3.58091066035364
H        -3.24295745092683      -1.36935427946164      -2.31619357588839
H         3.46300584229893      -3.23169872440368      -0.16001578321225
H         3.23392860370482      -2.30231514491171       1.36908545317117
H         2.03184917914651      -3.56867539657908       0.88339060549243
H         3.46584131501108       3.23409992026166       0.16795233651554
H         3.23971867063743       2.30893238544408      -1.36406995518946
H         2.03687421687968       3.57421434964622      -0.87762383715593
N         1.56295164793968      -0.90784533951656       6.28724745419310
S         0.33618000169926      -0.34473899712067       5.36409771367081
S         2.49690688212121       0.10826894529623       7.16557170782217
F         0.97218972783880       0.48717572529606       4.06004669015266
F         1.65580941487619       0.58317225777553       8.53240594605502
O        -0.49406400238216      -1.49560724525882       4.87191560236413
O        -0.52148730994521       0.59240012878355       6.16750847850567
O         2.83933287545586       1.32729933296641       6.35523856819406
O         3.75731370297190      -0.59716070713207       7.57779630825277
