54
C14H26F6N2O4S2 optimized with DFTB in AMS.
N         1.01526530771518      -0.39026281902030       0.32060442202579
C        -0.21731075505801       0.44157868963804       0.14811286985050
C         0.64035375910636      -1.75817675605953       0.81930426165643
C         1.88935790591473       0.22395230445700       1.38963853028319
C        -1.26023495331234      -0.21951822274884      -0.74708634375771
C        -0.38377404398479      -2.45610677370166      -0.06329992059167
C        -1.63995536936435      -1.60187613031889      -0.21803448899115
C         1.76963120144711      -0.50209422033117      -0.95769367873583
C         2.50511019168498       1.57624328394894       1.04690947571441
C         3.23317449245842       2.10541576660191       2.29258564257063
C         4.17479764459536       3.26696314403872       1.95103239929206
C         5.50069584284445       2.77176646216871       1.36143833051106
C         6.36648913101491       3.93394087236890       0.87990420756445
H         0.08708140515437       1.40250487336950      -0.27101054920306
H        -0.63347316866786       0.60557966608869       1.14605624539705
H         0.23982110377354      -1.62892669315876       1.82820119485977
H         1.55869239584007      -2.34449498091539       0.87569153876197
H         1.26879998151292       0.30526890985620       2.28589906546103
H         2.68603015794786      -0.49535093598388       1.58223789052739
H        -2.13919196156165       0.43039570435167      -0.76029349751609
H        -0.88995908081575      -0.29728528215426      -1.77275169719867
H         0.04212000040881      -2.68424689056332      -1.04359714621284
H        -0.63244822179091      -3.40535332160700       0.41751334536268
H        -2.13884271257728      -1.49946897017859       0.75110517296896
H        -2.33522446524546      -2.08224779094791      -0.91017048854529
H         2.05110430766494       0.49101904917344      -1.29713833449699
H         2.65945484551123      -1.10438886454366      -0.78333154516565
H         1.14636484174617      -0.97982525102718      -1.70838559778465
H         3.22146930467464       1.46083174788109       0.23179273102861
H         1.74037746660942       2.29429663263495       0.73670070489949
H         2.48933296904271       2.43637099791066       3.02482134856983
H         3.81182547570193       1.29422710192668       2.74468164966358
H         4.37784519790315       3.83113103531674       2.86716000077259
H         3.68077037025452       3.94677779461753       1.24721944687717
H         5.30813875529448       2.09520398319298       0.52394712227349
H         6.04107346736737       2.20412435730929       2.12535712185780
H         5.85943678546980       4.48831144831339       0.08833308574890
H         6.58057055550955       4.62004930667532       1.70125962275164
H         7.31110777702526       3.55537785605603       0.48939579896251
N         3.89934331654924      -2.26170329033690       0.59098215058322
S         5.06359778368322      -1.16579790785715       0.76045729139486
S         3.92057000693437      -3.57892049345089       1.51455122105394
C         6.74412663333617      -1.88353151659660       0.33567795615844
C         3.58742144720226      -3.06234229463838       3.28855804433213
O         4.81141288288534      -0.19916606311783      -0.29095183332774
O         5.18897944536279      -0.65030906436202       2.10739530668304
O         5.17438054289002      -4.28097048914333       1.54284248258508
O         2.72036275660734      -4.29862944151147       1.15763144664087
F         7.51447959098983      -0.88698633416800      -0.06945163568897
F         6.62563278289378      -2.76101021694220      -0.64296530350152
F         7.29273239320417      -2.45214773317289       1.38620253918873
F         3.00153234970286      -4.06209633823513       3.92574848272081
F         2.73485398313455      -2.02703033732481       3.27934052701575
F         4.67702193550833      -2.71539392847848       3.93405581294807
