54
C16H36ClN optimized with ForceField in AMS.
N         0.00621755219795      -0.00361257754917       0.00157906549948
C         0.84932838340491      -1.05101155459346       0.68090346682670
C        -0.84330012896227       0.67628553129999       1.04311870089262
C        -0.84301671234539      -0.67574865917978      -1.04504180745689
C         0.86220187133998       1.03653032871660      -0.67228188386414
C         1.91741007874494      -0.52312748812314       1.67387931388683
C        -1.90471513670053       1.67390892211412       0.51125281121814
C        -1.91796138443807      -1.66169445113469      -0.51852160683124
C         1.93193437972213       0.50120048662967      -1.65928071304821
C         2.69294324947078      -1.68725025989739       2.30399658121809
C        -2.68385086864356       2.30030139200513       1.67559350421431
C        -2.70000939880019      -2.27834789370937      -1.68580220491492
C         2.72898999139345       1.66120070150467      -2.27009165357568
C         3.73699145647014      -1.18369282942690       3.29730786004052
C        -3.71821607099723       3.30510235966435       1.17621496263388
C        -3.75179845669569      -3.26686455608751      -1.18970661720737
C         3.77522967490785       1.15590786840595      -3.25983629631066
H         1.35833191665768      -1.69161180595575      -0.07347875660229
H         0.20206205851995      -1.73989380283680       1.26429401784186
H        -0.20000056505517       1.25729954346030       1.73739811884375
H        -1.35875912674086      -0.07816140288312       1.67842609097216
H        -0.20041407323342      -1.26293263953991      -1.73513291168911
H        -1.34746499843556       0.08331592391561      -1.68376755186614
H         1.37163058549119       1.67250768700197       0.08568662455422
H         0.22435904801202       1.73067277303897      -1.25982419321597
H         1.43758806354108       0.04592810717119       2.49511278946244
H         2.64548093540752       0.13863018262346       1.16316683214979
H        -2.63019957483496       1.16741892405616      -0.15660134402867
H        -1.41900493314039       2.49572849618661      -0.05232183747536
H        -2.64080610506200      -1.14792951452091       0.14666755020148
H        -1.44351738990618      -2.48920532111672       0.04629774405282
H         1.45123690945520      -0.05444273286704      -2.48948625750451
H         2.64638024874658      -0.17488002631773      -1.14823448099032
H         3.20544866375509      -2.27157499619114       1.50905115599599
H         1.98870963950958      -2.36130635356786       2.83886369856919
H        -1.98032441051027       2.82445000238551       2.35881162418293
H        -3.20522272654602       1.50375334559003       2.24986568357765
H        -2.00067346588320      -2.81389071710325      -2.36441754602739
H        -3.20667524301056      -1.47526795065276      -2.26417331753166
H         3.24242794829960       2.22920293106026      -1.46392500800035
H         2.03878706032615       2.35113714478915      -2.80295654531463
H         3.24845376308783      -0.60724000160771       4.11167876864424
H         4.47778915928204      -0.53550854503211       2.78269214919057
H         4.27058458664514      -2.04765286962367       3.74616216681583
H        -4.45170744562518       2.80331807266795       0.51059580225400
H        -3.21978750946899       4.12826177395945       0.62136896161659
H        -4.26118051896869       3.74062000536155       2.04123624768511
H        -4.48826499135768      -2.75149027611617      -0.53726982713004
H        -3.26971295705288      -4.09024040526577      -0.62076949891887
H        -4.28921962110989      -3.70369453876905      -2.05754080738372
H         3.28638061395483       0.59826542113179      -4.08692702322431
H         4.50166668059939       0.49030732365054      -2.74703412073565
H         4.32548113000919       2.01846428366086      -3.69103725349505
Cl       -7.07603098932733       2.69356219291708      -1.14492527019805
