67
C19H28F18NP optimized with ForceField in AMS.
N        -1.54161947457273       0.10701982101289      -0.08291184039637
C        -2.56028990365862       0.50001947847297      -1.11090509723089
C        -1.77887157140536      -1.31918401667680       0.31313465452339
C        -0.19929385046353       0.20108553527542      -0.75417607557382
C        -1.61345840083113       0.98499613971414       1.13734088548618
C        -4.01777888117511       0.27428703424669      -0.67344890336938
C        -3.22042005495472      -1.61209198049229       0.77482778298782
C        -4.23707035660937      -1.18195650980905      -0.27758554327809
C         1.02550598370495      -0.12474418183608       0.13697535927677
C        -1.26007349468955       2.46750552367394       0.91720778907735
C         2.32795700253417       0.03503586071725      -0.65822541505005
C         3.55018121106015      -0.30516473344789       0.20358042975015
C         4.84904720372033      -0.11721770470851      -0.58877659612142
C         6.06828976280874      -0.47182056668092       0.25732661387510
H        -2.41092690661170      -0.09347672856729      -2.04338704880623
H        -2.44009283357035       1.55958501385582      -1.41836931319144
H        -1.10812541448209      -1.61322158511049       1.14812905614420
H        -1.55411628427407      -2.00354984651300      -0.53741529415904
H        -0.05684396389067       1.21381107220802      -1.19270228067588
H        -0.16326551784315      -0.49322535900421      -1.62588752307263
H        -2.62435197198961       0.96637218371849       1.58795159264163
H        -0.95153785338309       0.59291872718732       1.93959052815047
H        -4.69016090262878       0.51781865037413      -1.52447690746777
H        -4.29931435095797       0.95151978875076       0.15884830517934
H        -3.43628290230611      -1.11153543039497       1.74174304972857
H        -3.32730648570191      -2.70490231778763       0.94872993574128
H        -5.26541856432350      -1.30696712126644       0.12508919245701
H        -4.13799466918429      -1.83070762131363      -1.17601190244419
H         1.07173336861844       0.55879217601839       1.00866621176177
H         0.96929605908174      -1.17074805223733       0.50248231102821
H        -0.21551305877726       2.59981831949653       0.57246569122446
H        -1.95936989525285       2.95731312348912       0.21177230066074
H        -1.35023255606121       3.00183006024808       1.88657815987177
H         2.41250173162960       1.08487691072363      -1.01638722780985
H         2.30594527696758      -0.63890220060882      -1.54311012290285
H         3.47606954263591      -1.36116632228367       0.54553997490430
H         3.56711875027851       0.35595063608337       1.09813902813190
H         4.83632992077412      -0.76734100248715      -1.49071259739769
H         4.93640307891684       0.94100301304960      -0.91902459240495
H         6.02182747471887      -1.53562415925346       0.57385979206883
H         6.99181808269044      -0.31923900847442      -0.34007551031254
H         6.11602670964698       0.17752552789935       1.15732444682249
P        -0.89208818591666      -6.86684653329280       3.64170451644736
F        -2.01534349427041      -8.05900636005304       3.11073942702290
F        -1.65535990459974      -5.35913194819784       3.98086225131850
F         0.03744814016833      -8.31408446312741       3.68254839078891
C        -1.84706494692707      -7.23090558584704       5.29076830281734
C        -1.22164678172291      -6.50678760187178       1.76846738520454
C         0.89809526390136      -6.18704143961597       3.90613621721703
C        -1.84132252441071      -8.69045068624652       5.82090107749548
C        -0.58053442662323      -5.23606974016996       1.17344099767310
C         1.51511411021518      -6.36586888505245       5.30781282806310
F        -3.18332536819889      -6.88706113622278       5.12358927337785
F        -1.35197681455753      -6.42615567467239       6.29772773463307
F        -2.59055281534856      -6.37279076577318       1.55427072715209
F        -0.76722074343043      -7.58158743188878       1.01674878525661
F         0.89464902359834      -4.82449106235105       3.66851709411965
F         1.76148719403986      -6.76205629392836       2.98356971375636
F        -2.42944849850488      -8.70767759102867       7.07347064816690
F        -0.56723485238846      -9.19988582140848       5.95136933698191
F        -2.57822733577927      -9.52936747412303       5.00425480463088
F        -1.06695783485622      -5.05194948927058      -0.10928993342440
F        -0.90420311528614      -4.11418635606358       1.91087982667519
F         0.79162012531273      -5.35669175907133       1.08029496389390
F         0.93866058836341      -5.49330304709896       6.21178107736911
F         2.86447335694304      -6.06505833462270       5.24516674569324
F         1.39521552979017      -7.65799773406315       5.76864660294072
