24
C4H12F6NP optimized with ADF in AMS.
N         0.10813424731383       0.09378660655967       0.37698218474407
C        -0.87048759862137      -0.89021016745389       0.96196422682190
C         1.22915246343980       0.37682732161670       1.34204379762775
C        -0.61121782504804       1.37753309790115       0.08256403554079
C         0.67711562312577      -0.47456343456696      -0.88178195651085
H        -0.32223318004966      -1.79125597795021       1.25887120104090
H        -1.33239151045554      -0.43354984575112       1.84485698854633
H        -1.61113387339278      -1.12218814835831       0.18559239481277
H         1.96156432681088       1.00759798158215       0.82168658766050
H         0.82720608461093       0.88149561623796       2.22820064061658
H         1.68035732261142      -0.57581092182665       1.64147525763274
H         0.10308076173477       2.08516697393135      -0.35642461390467
H        -1.42477752493445       1.16814512366467      -0.62314424697506
H        -1.00692948766676       1.76075753561011       1.03176795489257
H         1.38250829105144       0.24620750623889      -1.31325919239509
H         1.19754123294449      -1.40893948873774      -0.63732623595282
H        -0.14028708089763      -0.67299105898747      -1.58589782382674
P        -0.76418279656604       0.62908004803119       4.64715288872131
F        -0.12771731947211      -0.69874355662580       3.83809844956690
F         0.67564967577556       1.42176357471806       4.37577345211099
F        -1.29379893225035       1.22148363506005       3.12664741817873
F        -1.38668953308832       1.96139628700715       5.35552465650247
F        -2.19162282791049      -0.16867009328450       4.78842800031181
F        -0.22000260976534       0.04287811908355       6.06756274393613
