47
C13H13F18N2P optimized with ForceField in AMS.
N         0.04582623687143      -0.52386294131880      -0.43841173803613
N        -1.99618871394926       0.28127537085195      -0.08674375464729
C         1.39654278383220      -0.68894306720089      -0.97388191732236
C         2.45308962821083      -0.48074816809598       0.11751284683776
C        -0.83796424039849       0.44303200989473      -0.75552748489412
C        -0.57695295069540      -1.32389593553509       0.45094624119806
C        -1.84380650009043      -0.82233147558378       0.67048387570853
C         2.45986406726105       0.95548460380938       0.63520011166286
C        -3.18305495016261       1.12296975935019      -0.16459237758996
H         1.57202740654541       0.03174331126789      -1.80301959610023
H         1.49863015310737      -1.71297860259771      -1.39327153255286
H         2.27007199046207      -1.17883528012849       0.96257990456100
H         3.45476281652287      -0.71193431312678      -0.30473094397747
H        -0.64202490561092       1.24578264888871      -1.45541102192515
H        -0.14532527803581      -2.20803631348533       0.90204646684947
H        -2.59741597908248      -1.23452650422789       1.32907025772388
H         1.48663886651424       1.20484704013930       1.10895330588529
H         2.65392683745954       1.66172557206375      -0.19974750461299
H         3.26132762778373       1.07415098472346       1.39432471595421
H        -3.01842897444857       1.96453653770638      -0.87084707521266
H        -4.04532197960332       0.51964245207873      -0.51864363219690
H        -3.41333417477440       1.53666392315571       0.83960220439144
P         1.32997906017025       6.26601981480313       2.15285302441675
F         1.12309455941873       7.82670341267846       2.85681645509047
F         1.77010994147974       5.15148310979954       3.39148740461389
F         0.67168812163607       7.31900953589936       0.96179075225325
C        -0.31993724831638       5.93975798227997       3.10612155827388
C         3.12941474956999       6.91789949869681       2.44411633198241
C         1.54873531773717       5.15422004376879       0.60160535306480
C        -1.56734065076164       6.67027465820133       2.56349733701101
C         4.29828089535929       5.93822244946433       2.16699062677666
C         0.27940020850901       4.66399578956850      -0.12068992729976
F        -0.16531242681908       6.34196727153856       4.42776900251450
F        -0.60234031036287       4.58317615482806       3.13288845672675
F         3.26815398269454       7.31442376637407       3.77084888689148
F         3.33176179307272       8.03187156173082       1.64319532964689
F         2.26197115671764       4.03244704047413       0.97877913444631
F         2.29488586357327       5.84117585202087      -0.34192819332048
F        -2.64228536288308       6.39617958484412       3.39047549105455
F        -1.88989126370939       6.23986283522572       1.29542278399430
F        -1.38426098843934       8.04086187933736       2.54346464509246
F         5.46989756856559       6.50497762320262       2.63797327827208
F         4.12974277848062       4.72820072369235       2.81296020683009
F         4.46978767502565       5.71442484342501       0.81648079244260
F        -0.56038694969403       3.97700823590134       0.72888185222261
F         0.65435734607766       3.79353011504274      -1.12906121123057
F        -0.39782735542114       5.71525102457254      -0.71024609107133
