21
C5H9BF4N2 optimized with ForceField in AMS.
N         1.10936728653134      -0.00629723394637      -0.02452810928453
N        -1.11252721484277       0.00341173663060      -0.00733371040793
C        -0.00464064913040      -0.76293749548609       0.01291894869044
C         0.69381950991630       1.27490524505861      -0.07193169423681
C        -0.68668856203227       1.28125524283182      -0.05869447782181
C         2.49028808858680      -0.47190811305091      -0.01288097434212
C        -2.49708487090172      -0.45090214085483       0.01885992496373
H        -0.00904463231567      -1.84538238268248       0.05489931761930
H         1.34428250953018       2.13896949511551      -0.11154845443913
H        -1.32973291425406       2.15156936116102      -0.08559382256762
H         2.52670838908786      -1.58181562788034       0.01324807079755
H         3.01166511271033      -0.11767159499489      -0.92656470128098
H         3.01108239100829      -0.07548235597867       0.88360441982110
H        -3.00464083611090      -0.05036200487747       0.92117354936995
H        -3.02545930924188      -0.09227411176888      -0.88926198703233
H        -2.54245380907281      -1.56055515838365       0.04455020658152
B         2.21354864019978       2.34126544370244       3.21671880559454
F         1.49026548928650       1.12331595663795       3.11314206295093
F         3.55733119372528       2.13058412422042       2.80784378387878
F         2.19311977010992       2.79019865626318       4.56383549375928
F         1.61341316690991       3.32218296308303       2.38340057098614
