31
C11H18ClN optimized with ADF in AMS.
N         2.53926876286673      -0.09668780964352      -0.47118542809859
C        -1.26083675658212       0.15906576516040      -0.55214493375882
C         0.12173613117387      -0.14980963986539       0.01377713643156
C        -2.35581950336014       0.05021437822003       0.50487201420278
C         1.18554919712028      -0.00635234236965      -1.06790292612760
C        -3.74341109686739       0.38836350550351      -0.03491424448688
C        -4.83537563187303       0.26945917287816       1.02508737586007
C         3.20997961405049      -1.27278249529213      -0.45973213126232
C         3.04247948505444       1.01933020169276       0.11447588843811
C         4.44048612592837      -1.37112671377896       0.15706408060030
C         4.28434786864286       0.95550912511036       0.73106371873286
C         4.99021852971912      -0.24047504678872       0.76925714553357
H        -1.48845276940363      -0.51701501160416      -1.39817730664170
H        -1.22841943628832       1.19170206395413      -0.94501531134348
H         0.34800252343737       0.59523006819074       0.79698382503927
H         0.16230877648457      -1.16073852030791       0.46291866926516
H        -2.36772727835101      -0.97175973166322       0.93093256736018
H        -2.11365966659090       0.73669782668662       1.33726323510051
H         1.10400910812027       1.01579353372706      -1.49586853098855
H         1.11330882586811      -0.78188083700428      -1.84612559890382
H        -3.72865502566777       1.41605220407698      -0.44075609600992
H        -3.97728258974621      -0.27959630503634      -0.88447246909789
H        -4.64083009575236       0.95204603641342       1.86806755186741
H        -5.82433261088127       0.51752287623833       0.61078410569091
H        -4.88458455058262      -0.75551879234689       1.42845846722724
H         2.71943797377114      -2.11049724432554      -0.95395689609957
H         2.38825715481621       1.93703888790622       0.02440829552662
H         4.96108793209700      -2.32801378153277       0.15741174579091
H         4.67837616909810       1.86727487534896       1.18339632377616
H         5.95916485950065      -0.30094576869876       1.26869219648473
Cl        0.91082260969720       3.19118479495056      -0.52569501740923
