48
C14H31NO2 optimized with ForceField in AMS.
N         0.00057196732082       0.00519098750215       0.00590159073725
C        -0.86016422459116       0.62412175889631       1.07629789763892
C        -0.83511818902374      -0.63237482494891      -1.07278166919347
C         0.85802171430994      -1.05896794873259       0.63869513114259
C         0.84008669282466       1.08946445794901      -0.61713168742500
C        -1.93139374260884      -0.30251064310171       1.70665992632427
C        -1.91046561124685       0.27654076124724      -1.72191560478138
C         1.93170779426675      -1.69856759850296      -0.27951563263770
C         1.90298690230068       1.73712551948726       0.30806667003694
C        -2.75363122112324       0.45453735510349       2.74785981285033
C        -2.71815514688837      -0.49896240616311      -2.76066012854670
C         2.74782213724058      -2.73772559517339       0.48651303181986
C         2.66101145076783       2.83935886958143      -0.42718125186204
H        -1.36832661702156       1.53581678059931       0.69048946475632
H        -0.22796713372273       0.97679972245479       1.91913144786061
H        -1.33428891996803      -1.54975264456957      -0.68860474432966
H        -0.18534317116825      -0.97972807383698      -1.90472179069031
H         0.22255902960459      -1.89635479755237       0.99928058179352
H         1.36469561562456      -0.66269352754886       1.54675276431035
H         0.18986148797735       1.91819143645260      -0.97184604343098
H         1.35493675976412       0.71111628228540      -1.52841056932242
H        -2.63508231949519      -0.69060880166399       0.94388021463993
H        -1.45551412053236      -1.16283079204836       2.21882346530998
H        -2.62341115190319       0.66739300517119      -0.96930687905606
H        -1.43763512294341       1.13524926293423      -2.23994997348597
H         1.45885181341315      -2.21612474607484      -1.13818775036677
H         2.63820901107417      -0.93973955218372      -0.67063460264241
H         1.42980873908011       2.19961083849635       1.19670441015291
H         2.64636554196964       0.99042325406263       0.65205261009464
H        -3.51089057070008      -0.22515118988079       3.19250696513480
H        -2.09655101892304       0.83167676196685       3.56042399230168
H        -3.28048066222337       1.31155436416756       2.27655765988085
H        -3.47948996953540       0.16885468680222      -3.21635708579879
H        -2.05209584944591      -0.87698918917507      -3.56537029627685
H        -3.23959318228186      -1.35647960914175      -2.28430145983709
H         3.50969285529642      -3.18458131086480      -0.18663890141061
H         3.26847725241124      -2.26478924534697       1.34627687949995
H         2.08726012628394      -3.54909500942784       0.86024612839371
H         3.43842969291117       3.26882997608406       0.23931679620857
H         3.15693109067745       2.42874453284798      -1.32905593796793
H         1.96591999086192       3.65040399614190      -0.73192001599337
C         6.02729351703608       1.56577023816797      -2.54049407024139
C         4.81533583357081       1.07061449132006      -3.26527653957760
O         4.07326758361304       1.86248766596949      -3.82331097879389
O         4.56417251903453      -0.12327990518662      -3.30114566560523
H         6.69277411792539       2.10042153337142      -3.25042766617985
H         5.72254379284493       2.26284948608958      -1.73169234955558
H         6.58866655134071       0.71894334387269      -2.09078008847890
