41
C11H21F6N2P optimized with ForceField in AMS.
N        -1.26313733153720       1.35305998823915      -0.23399055968650
N        -2.69347793972861      -0.31245591047174       0.11725282301194
C         1.13661215721421       1.94023979913827      -0.19814471076060
C         1.60889042159531       0.48965624075388      -0.37712119064781
C        -0.22901422139232       2.17849136387788      -0.85581354515692
C         3.01420525506956       0.28431688106760       0.19893354521592
C         3.45784669365279      -1.17559129892840       0.04342100358254
C        -1.82174735263491       0.24008775693882      -0.74787033279986
C        -1.79632269468013       1.50796143000250       0.99463545568956
C        -2.68479385587499       0.47350738891510       1.21272464805728
C        -3.40550797452272      -1.57609957904746      -0.04910743414593
C         4.85465623260273      -1.39555891487585       0.61560825471128
C        -4.87664033819112      -1.32381366924090      -0.35025377443100
H         1.87455584465827       2.62828363894803      -0.66529487534047
H         1.07554292280014       2.18645390555026       0.88445115682951
H         1.61578203890990       0.23387473757794      -1.45961087262969
H         0.90294005803484      -0.19442578982317       0.14243362758244
H        -0.50661443911859       3.25006329025562      -0.75743080315319
H        -0.16153778339167       1.94940138309400      -1.94232953096716
H         3.01370227029583       0.55697756982404       1.27749843478998
H         3.73143038000336       0.94676115476024      -0.33402854253898
H         3.46332133512234      -1.45343999520682      -1.03330739034154
H         2.74441831958798      -1.84298306496608       0.57453288169759
H        -1.57385404789350      -0.17708283829547      -1.71615403755406
H        -1.54007118299011       2.29841202047325       1.68804772877619
H        -3.25581530492536       0.28955477710079       2.11389657128001
H        -2.95960785681829      -2.15341722369723      -0.88809874667182
H        -3.30918287832057      -2.18389361160234       0.87690126992334
H         4.87048100438343      -1.15285872536919       1.69937939562695
H         5.59431085818840      -0.75887053481407       0.08473506490661
H         5.14420504274296      -2.45972499981551       0.48586685735831
H        -5.35218218221992      -0.77156217855552       0.48748327124532
H        -5.40017390690723      -2.29416675411534      -0.48372812839674
H        -4.97547863582252      -0.73270187771951      -1.28535558988708
P        -3.73385863310862      -6.29889327328499       0.30905250087531
F        -5.06114742775673      -6.57525473605909      -0.74515935382179
F        -4.79945536065452      -5.89128288466560       1.59289701782238
F        -3.79439628506265      -7.96907516516743       0.70397990071565
F        -2.46910607028676      -5.97913796122730       1.42627190451229
F        -2.54613439460095      -6.66098215902802      -0.87743507666812
F        -3.73771161162206      -4.68423197614031      -0.27028200611113
