39
C9H20F2N2O4S2 optimized with ADF in AMS.
N         0.29603220750892      -0.10249739432485      -0.27951672738693
C        -0.55727411861744       0.68537301745601      -1.26973103777253
C        -0.51649220813554      -1.26683134920824       0.25041175981547
C        -1.88755043819005       1.12794782685093      -0.69002402338157
C        -1.85480823905347      -0.85147154669380       0.84251738989730
C         0.74402953725396       0.77415611442266       0.87672750743267
C         1.49760540066703      -0.63029568450449      -1.05132721648665
C        -2.68844062587010      -0.06027014061341      -0.16251096929906
C         1.72265066524314       1.86930466781827       0.50117108588185
C         2.45047892497057      -1.49510710439332      -0.25611602789236
H        -0.70412737045496       0.01302128968499      -2.12730379055963
H         0.05693288038981       1.51834790993311      -1.63611250114332
H         0.10614374788437      -1.78493651026935       0.99223632103085
H        -0.66684824125829      -1.93733025937560      -0.61143154108500
H        -2.43110266719194       1.63588210669971      -1.50329768778320
H        -1.74786604599298       1.88426762039908       0.10175120788899
H        -1.70509761501856      -0.26741555614577       1.76639813432520
H        -2.37502975883320      -1.77558514828081       1.14500706944869
H        -0.16850931687692       1.20262815476725       1.30843047132556
H         1.17445830386388       0.09369587226883       1.62674985258369
H         1.08664563462888      -1.16646182148115      -1.91830845569841
H         2.00796672111230       0.25227523410957      -1.45203806188877
H        -3.62925777446200       0.27595452815843       0.30085626088109
H        -2.96002414914823      -0.71801191471949      -1.00837141016247
H         1.84436449430204       2.52172636171988       1.37899668771136
H         2.71291540500541       1.47683062922925       0.23531562606855
H         1.37404578438511       2.48827443404860      -0.33632059811670
H         3.28645878335223      -1.73801527116042      -0.92943369016326
H         2.87528386166916      -0.97640293595911       0.61539299812798
H         2.00562018313275      -2.44514356446122       0.07160997747285
N         2.27691272678524       2.10515790619901      -5.30430116698797
S         1.90160129508341       1.40567181214833      -3.94650789329069
S         2.32417338385719       1.21648177155480      -6.67314697754187
F         3.30229836731920       0.60131757434237      -3.47334367785078
F         0.71322213007976       0.98432379900857      -6.96912764123900
O         1.76298955536411       2.41045554080828      -2.89198201057488
O         0.92032269100914       0.32273132432286      -3.98311074379784
O         2.85768519539037      -0.12250472701588      -6.51474713193368
O         2.77044748364569       2.08778285955612      -7.73579470555554
