35
C11H20N2O2 optimized with ADF in AMS.
N         1.18307232357485       0.55584379252583       0.27607388268525
N        -0.82553529760494      -0.04811272610677      -0.28020016419662
C         2.48111807829096       0.51884823893551       0.94966233006753
C        -2.04018674698063      -0.85986877013033      -0.38871918356379
C         0.28224312634409      -0.43666795238807       0.37659946761087
C         3.63559723715156       0.55789144954611      -0.04525336325270
C        -3.29401317115620      -0.10731851786552       0.04562569544799
C         0.60755054025629       1.63103479568122      -0.37469803607807
C        -0.65354724182570       1.25485001127796      -0.72761397667702
C         3.61125624888184      -0.61334707063892      -1.02209107486686
C        -3.24375876371971       0.37155808966890       1.49131395283680
H         2.47540875286966      -0.41069621491955       1.54326035252623
H         2.51529162849251       1.36546232998993       1.65358697477343
H        -1.87621835177846      -1.73180894171052       0.26132493319756
H        -2.13337117441644      -1.21128684976230      -1.43002255869088
H         0.50199426723257      -1.38496440074012       0.89384490767713
H         3.61903204926023       1.51410137014464      -0.59875101441882
H         4.57294088332055       0.55283592162399       0.53707827977507
H        -3.47008499148043       0.74025853430624      -0.64085009067061
H        -4.14374899695572      -0.79657750143653      -0.10742034985738
H         1.13417947541813       2.56462442441406      -0.52653831304180
H        -1.43220366090343       1.79834111531283      -1.24555489542407
H         2.68793923871141      -0.60777418145600      -1.62180517706787
H         3.65714720629554      -1.57210995338102      -0.48235566236623
H         4.46373015035596      -0.56669475929394      -1.71600784080412
H        -2.39585328325569       1.04968603625680       1.66387320271091
H        -3.09934319746047      -0.47156983328232       2.18326262002059
H        -4.17733588621682       0.89010834301983       1.75666424277073
C         0.00890832660398      -1.43478001990938       4.67218631568522
C         0.29293281036993      -1.16607087557404       3.19169845506401
O         1.06556958167524      -1.96816212653944       2.57575971620433
O        -0.28268532946482      -0.14717610342677       2.69090242649787
H         0.51778159954747      -2.34296694601690       5.01894184336843
H         0.33725354871163      -0.57233486141645       5.27213250104468
H        -1.07689085254497      -1.53384962050899       4.82328845511221
