46
C14H29NO2 optimized with DFTB in AMS.
N        -1.60419822255440      -0.22051969170080      -0.09066231802255
C        -1.85173485046866      -1.63002315173102      -0.53350113898570
C        -2.85026889202738       0.14365018505812       0.65297622396056
C        -0.41514474389220      -0.15376302421124       0.82201485031816
C        -3.31984537960463      -1.65404527298815      -0.93551330006475
C        -3.98939545487309      -0.55467626238091      -0.09311673830182
C        -1.46872833088738       0.65752616272734      -1.31316841892886
C         0.85254864290076      -0.70075508335452       0.17253460029349
C        -0.83907779105968       2.01436431616112      -1.05649296391530
C         2.11315092483875      -0.11927865843388       0.81941550296612
C         3.33061887483926      -0.44509493184206      -0.05276655491170
C         4.60733011389226       0.18630779904384       0.50812449890083
C         5.81446127734892      -0.13349677537855      -0.37240510763601
H        -1.66505314018190      -2.28637339560015       0.31968975705472
H        -1.16694677724894      -1.86700630520063      -1.35562934722462
H        -2.95025603396723       1.22879119630874       0.68570377866222
H        -2.76166428302606      -0.23842730117585       1.67259092874688
H        -0.67212542186400      -0.72889244000528       1.71686337288090
H        -0.29421744639282       0.89156652995742       1.11478886654233
H        -3.75417092361793      -2.63471305907806      -0.73596948605662
H        -3.42859183281166      -1.44359382854133      -2.00120802583233
H        -4.52937327526186       0.14926126919143      -0.72908622383297
H        -4.69853961304581      -0.97510059916299       0.62252920604604
H        -0.85744343369998       0.10768272341007      -2.03505396907814
H        -2.47395760186292       0.77395275457280      -1.72174620887288
H         0.86449401251481      -1.79146933321434       0.24416138275769
H         0.87043051099897      -0.43393769462879      -0.88793215898142
H        -1.00469465902809       2.61978558688656      -1.94734851716352
H        -1.27662953465967       2.52957137298975      -0.20078142890082
H         0.23683061178281       1.91466623708866      -0.92281491580038
H         2.24720582261719      -0.51990108495119       1.83067234386138
H         2.01105394354324       0.96903410994450       0.90120179445591
H         3.14695973917379      -0.07128233688108      -1.06579705365132
H         3.45349373689078      -1.53154987955653      -0.11332995071894
H         4.48041495040991       1.27283241499462       0.56901344255556
H         4.78739516223588      -0.18576116479732       1.52333901092868
H         5.65862385097324       0.24528542420479      -1.38320992640137
H         6.71280277192773       0.32884498903925       0.03808943844726
H         5.97227347759163      -1.21164078221181      -0.42729862142840
C         1.72111799712149      -1.20005337344811      -4.52207691310585
C         0.88073030370626      -0.77088262706031      -3.30004235137288
O        -0.10308748663835      -1.48838053431106      -3.00273051284639
O         1.24824543398242       0.26147914419985      -2.69854890528066
H         2.74313858631645      -1.39270077373109      -4.19767641436518
H         1.30352144665814      -2.09555237383445      -4.97787559715899
H         1.73698229841003      -0.38748333186732      -5.24702217493825
