27
C7H11F3N2O3S optimized with ADF in AMS.
N         0.57433432177313       0.16612543067369      -0.48257674672872
N         2.38549288997669       0.46850629125185       0.67134169188293
C        -0.50899283166959      -0.49666812567607      -1.23116628537017
C         1.54632173906398      -0.46017096044093       0.19216796850671
C         0.81869655559193       1.52265466655630      -0.46378009515265
C         1.95946076126303       1.71337340394112       0.26074515891921
C        -1.12481931093134      -1.64272271422363      -0.45243464631285
C         3.64498159738690       0.17044365795033       1.34622403720218
H        -1.24610251798318       0.28926774868929      -1.44691259274068
H        -0.06555482860966      -0.86082801803112      -2.16865647675673
H         1.67065553895755      -1.53351154249404       0.25726213287978
H         0.17214068780394       2.22688297842320      -0.97090120508228
H         2.49849380880694       2.61623944415843       0.51685081449197
H        -0.41026459194417      -2.47239084730215      -0.36224915929264
H        -1.99524224066491      -2.01877307764805      -1.00831943379828
H        -1.45854378834129      -1.31692021079854       0.54422078076719
H         4.33415841925511      -0.25133075842253       0.60232621514244
H         4.03521669204196       1.09882230429598       1.77724275537244
H         3.46369318433033      -0.55575355584561       2.14708850837759
S         3.02624662978011      -2.21637519333165      -2.22490113215576
O         3.76043899556080      -1.40417606091269      -1.22546098425051
O         1.63993404480955      -2.54360217574266      -1.80603411904105
O         3.77727652918572      -3.28494346415760      -2.87394128862550
C         2.73971703135006      -0.96671278418700      -3.60140521684110
F         3.90587438672691      -0.48746956771958      -4.09910033175071
F         2.02148407316197       0.11853528051560      -3.14253235439177
F         2.03030273181752      -1.50570763172192      -4.62760615105103
