41
C13H24N2O2 optimized with DFTB in AMS.
N        -1.16740088940375       0.85228613436098      -0.11257716414335
N        -2.66691512441299      -0.63366991112742       0.37797472654567
C         1.23190890562070       1.37343702847457       0.23307435823844
C         2.22567891463666       0.34530878757814      -0.31496743456487
C        -0.00328489247210       1.51997356587915      -0.67459182185811
C         3.39077806910573       0.13955805868520       0.65727725229997
C         4.36216828425651      -0.92644549670036       0.14140005208618
C        -1.55005065924483      -0.42112677959065      -0.36418990048333
C        -1.88391342936975       1.33433084138865       0.97468018200165
C        -2.81692406828558       0.41338465214486       1.27696380903709
C        -3.32877794718989      -1.92752710234625       0.47817341033257
C         5.51038464718407      -1.15669332737650       1.12247927985497
C        -3.20611393240422      -2.50760476552270       1.88441193517656
H         1.72610887784683       2.34640367044058       0.31848034375668
H         0.90454798791021       1.07471788567665       1.23280366287807
H         2.60972670705700       0.68703957623422      -1.28316007507338
H         1.71291942497414      -0.60710036163839      -0.47614579138895
H        -0.26338912396004       2.57631865596450      -0.79611989530087
H         0.18112065498109       1.09550905357698      -1.66618709549762
H         2.99765779035768      -0.16794664654969       1.63186078459995
H         3.92519496243998       1.08609102490614       0.79680683284779
H         4.76682051155421      -0.61490589005570      -0.82789828679681
H         3.82149485242733      -1.86713510712780      -0.00929997359314
H        -1.41159474414842      -0.87618758053104      -1.33432418283271
H        -1.67051404007105       2.29529424238046       1.40742023183626
H        -3.58688920476800       0.41064249856194       2.02740033249649
H        -4.38385461317358      -1.80843311595039       0.20468308779281
H        -2.84896761036774      -2.59016078638369      -0.24711383887130
H         5.12528651033685      -1.48186102613877       2.09014459039401
H         6.08142504466198      -0.23832306474565       1.26758535880712
H         6.18223030755820      -1.92618467654668       0.74057426432767
H        -2.16473129128716      -2.51755394001262       2.19936530093141
H        -3.58883100239894      -3.52786385144980       1.88479822783128
H        -3.78059770632682      -1.91757120708746       2.59759725953177
C         1.04476158446611      -2.69113474575450       2.04091661066699
C         0.11099564238124      -1.56071199922796       1.57011222648605
O        -0.22176376243277      -0.68414854440683       2.35312676802150
O        -0.23398746505229      -1.67740191180967       0.34289145956149
H         1.43200653958136      -2.46139740524112       3.03087368554727
H         0.47828926421437      -3.62055143845614       2.07377080895214
H         1.86309623521766      -2.80894852197524       1.33358831946463
