58
C18H37NO2 optimized with ForceField in AMS.
N        -0.01162117731133       1.98746526882023       0.00662637898554
C        -0.69812935041996       2.89372468351625      -0.96547426894759
C         0.65780530900425       2.90199052409799       0.98258124067339
C        -1.02119371271530       1.14332116129487       0.72597031136617
C         1.01328777442180       1.16515941735236      -0.71635858623614
C        -0.22101534354335       4.31145390605666      -0.71407010741490
C         0.14784421653984       4.31013646853286       0.74240810324443
C        -1.76223107436090       0.12308264210310      -0.17282398996208
C         1.77473863185518       0.15549783059440       0.17764875070222
C        -2.87401479570462      -0.58592122009918       0.61044207725103
C         2.89505054353215      -0.53283858843428      -0.61230449493716
C        -3.61886134708104      -1.59448909385964      -0.27305446043500
C         3.65470085593038      -1.54005046150233       0.26052154648200
C        -4.69136414843261      -2.33932157337967       0.53075767810189
C         4.73295564707838      -2.26544367007717      -0.55384410420249
C        -5.44467891618295      -3.33841953731089      -0.34253806216907
C         5.47963526073146      -3.28741858413840       0.29831536411612
H        -0.51664865913112       2.61827665048838      -2.02975690842039
H        -1.80433896682011       2.89827239119014      -0.82920312457476
H         0.48644999142871       2.61508347044183       2.04549330566773
H         1.76308560697280       2.93225058243466       0.84210337400639
H        -0.54175520613666       0.58845677248956       1.56267122584127
H        -1.77903384976954       1.80311441711030       1.21000559778070
H         0.54346137516430       0.60468541018454      -1.55482409919540
H         1.75813774891958       1.84082994997208      -1.19859214790113
H         0.67913001918124       4.52307958581873      -1.33297356861354
H        -1.01167886340424       5.06189173109554      -0.93426108853268
H        -0.75699421332055       4.49585326529450       1.36279740523876
H         0.92084497453720       5.07702078998674       0.96844855064674
H        -2.20742211740222       0.63033907305525      -1.05435027769521
H        -1.05361271644930      -0.64925802078880      -0.53763996571167
H         2.21500596016571       0.66820668619138       1.05849772381954
H         1.08046203623748      -0.62936254254287       0.54328916418368
H        -2.42521957538520      -1.11728980220648       1.47892144825555
H        -3.59638662626799       0.16901130078894       0.99231606419394
H         3.60678006448420       0.23445859359129      -0.98936887239843
H         2.45146571306745      -1.06265773887006      -1.48441946937589
H        -4.09930678221142      -1.05582227118640      -1.11983724925716
H        -2.89421237847071      -2.33017854835460      -0.68740765606236
H         4.13242903644414      -1.00359032796840       1.11027264744678
H         2.93952399794576      -2.28715174644808       0.67087445560674
H        -5.41800119600209      -1.61067691772587       0.95196367666336
H        -4.21424553916808      -2.88745088047851       1.37252154811043
H         4.26206006351415      -2.79255847208479      -1.41244344360481
H         5.46245528729465      -1.52640282353413      -0.95128058337335
H        -5.95975722269186      -2.81262878848505      -1.17467696814469
H        -6.20673589216635      -3.86534149461553       0.26978500049056
H        -4.74356339577039      -4.09162623309411      -0.76140211210942
H         4.77687373249083      -4.05771338691608       0.68185346122630
H         6.25452861420060      -3.78956475732197      -0.31865833212532
H         5.97822021396990      -2.78686731661128       1.15464573867464
C         9.18351488327978      -1.45765944855095       1.08146647612136
C         8.66763916329429      -0.90886205791547       2.37409992537316
O         7.47889534869724      -0.98649477730474       2.63822447069343
O         9.43102628950709      -0.38349249208972       3.16817733866453
H         8.99767986285809      -2.55161320730404       1.04012130827824
H         8.66285139739052      -0.96628748994425       0.23250809135307
H        10.27584836038070      -1.27511265195884       0.98697703914096
