26
C8H14N2O2 optimized with DFTB in AMS.
N        -0.47383864667718       0.13103719477600      -0.35090061291927
N         1.63614874845544       0.22542269330080       0.12893657803197
C        -1.86457429541528      -0.29343247042575      -0.37011002433683
C         0.51348597319700      -0.50177382482381       0.33302975018030
C        -0.02793563286568       1.39769224492476      -0.71005436809174
C         1.28192301877099       1.45537974732948      -0.40698626431437
C        -2.65167190734079       0.33077066745944       0.78002715324407
C         2.90097199803072      -0.02544178034224       0.79684042182757
H        -2.29369703923844       0.00090915764198      -1.33371752502025
H        -1.88261179525761      -1.38486253896483      -0.29614681662400
H         0.53597079056710      -1.57659429123729       0.43728287082861
H        -0.68163593565606       2.11437776735056      -1.17513158449902
H         2.00715516509679       2.23813251817148      -0.53954464312351
H        -2.24726208601406      -0.00613536066308       1.73287703020843
H        -3.69635879549173       0.02935262472744       0.70756648879326
H        -2.59055377010874       1.41767931008429       0.73572453680193
H         2.94155112980248      -1.07295533486334       1.09115509632388
H         3.72082640768874       0.20045797135904       0.11441970905641
H         2.96570278725713       0.61155692483755       1.68230469633892
C        -0.33315162232247       0.72927072679993       4.27073480575296
C         0.37013597444679       0.66535878702720       2.90215041277744
O         1.16848807217246       1.53815980209744       2.59802001988917
O         0.00991039646045      -0.34626684054494       2.20481451789097
H         0.19917276734587       1.41488143637221       4.92594904186929
H        -1.34923402264033       1.09047721344446       4.11581483025993
H        -0.37750454266359      -0.26331393993881       4.71403080085389
