41
C11H22F3NO3S optimized with DFTB in AMS.
N         0.40189845619083       0.17333278892800      -0.11066795652048
C        -0.24520342670699       0.96209195274996      -1.21473181105214
C        -0.45707669995941      -1.01518849292956       0.20041964309002
C         1.72545277323844      -0.30955817744517      -0.65316994582000
C        -1.67047173889931       1.38593458698741      -0.89440515764022
C        -1.89683173581543      -0.64561015960909       0.54355940511202
C         0.58670191010985       1.00093072826780       1.13592461371826
C        -2.53889205536736       0.16988255084431      -0.57755286665130
C         2.56613764049763      -1.13912842161357       0.31332675476687
C         1.55328169826832       2.16703848790313       1.00593431763017
C         3.91522957337307      -1.43641293287305      -0.34499395306890
H        -0.24135547627597       0.31987214863440      -2.09930625852591
H         0.38758979556820       1.82725471776595      -1.41791809570451
H         0.00131531920019      -1.55069458809871       1.03395418071871
H        -0.44054079394111      -1.65833525773828      -0.68400368653417
H         2.28117642636507       0.57535789197588      -0.96273289892653
H         1.49805412643140      -0.90075485970171      -1.54398016608610
H        -2.06140032930936       1.90129870854740      -1.77531137579866
H        -1.69076649183558       2.09416506446900      -0.06210210105608
H        -1.93655163957967      -0.09022535975905       1.48441503467805
H        -2.44755490084790      -1.57906457709987       0.68782897734230
H        -0.39865775047104       1.37389596507985       1.42057732564366
H         0.92515267162210       0.31694884474282       1.91812530658575
H        -3.53762029493918       0.49132475178841      -0.27316571624964
H        -2.63872150319985      -0.45306551875872      -1.47230157721683
H         2.74202648700094      -0.59109491490987       1.24189441290941
H         2.06139265325992      -2.07876373435247       0.55966948854822
H         1.52384393263139       2.71767966479584       1.94622327473335
H         2.57450207955346       1.83419049150503       0.83485628562183
H         1.27144879489434       2.84308431374020       0.20222442987776
H         4.51646654836533      -2.05772067008543       0.31786183626978
H         3.77496407238921      -1.96240597736660      -1.28954356386576
H         4.44519682644337      -0.50378540614601      -0.53499625847772
S         3.60281282295393       2.57939328525216      -1.97061883425321
O         2.14293165306023       2.57481470021131      -2.08643415489134
O         4.31305877373016       2.43310481367362      -3.21235881927756
O         4.08071428874970       1.74375544474460      -0.87298066745708
C         3.95318615601240       4.29872140994865      -1.37636266637834
F         3.24204182954977       4.53290333438185      -0.26755851619172
F         3.60728254795060       5.20600494540524      -2.28079091181802
F         5.23605558833832       4.46428585384435      -1.08285493928397
