31
C9H20ClN optimized with DFTB in AMS.
C         2.79663633505725       0.30970791665809       1.45953845023609
C         1.86206159115628       1.27309124194025       0.74084811025576
H         1.40701936829183      -0.88923646870444      -0.87678453246378
H         0.30693046696563      -1.60989252522545       0.32592256490661
H         3.06033644295124      -1.68571748548615       0.59390908767242
H         1.98762373763525      -1.63860030355184       1.99800294694373
H         2.74427749597346       0.48648195201391       2.53666413410961
H         3.82527388702053       0.46618529719153       1.13171571859958
H         1.62487899899157       2.14552437919846       1.35551818909960
H         2.26044196566835       1.57488904077425      -0.23043020598398
H        -1.05159399221883      -0.24852096677773       1.58933692310267
C        -0.23348631888115       0.45538778661689       1.72607459792646
H         0.38913919269895       0.15256087594647       2.56327488570953
H        -0.60874383520841       1.45593182735599       1.92682396561158
C        -0.13754005090430       1.15505143681960      -0.63198820804410
H        -0.19735294425192       2.21162870527405      -0.35689544414493
H         0.48884225701848       1.06411658269856      -1.52376864485443
H        -2.16941645129027       0.68369984704275      -0.03317366269810
H        -3.07542330243789      -1.97353574387508      -2.59462761095514
C        -1.63170172348478      -0.72961192183254      -1.58285769234105
H        -0.89279080634832      -0.80195820035885      -2.38796783776404
H        -1.40680527161310      -1.50566550555241      -0.84581114616830
C        -3.02868094721612      -0.97986447881187      -2.14973488530522
H        -3.26844671638346      -0.24292808703309      -2.91684561738911
N         0.59944319876220       0.49220998202241       0.49270362263754
C         1.10068854280776      -0.87992931146225       0.17187016772160
C         2.29484205146785      -1.09625327449067       1.10166801730474
H        -3.77716152232044      -0.91625304016023      -1.35935656676939
C        -1.55059623456457       0.65593149424251      -0.93288730523282
H        -1.96977948356156       1.38911360475742      -1.63054110595121
Cl        1.26573480811848       2.29055039196948       3.60831594082805
