34
C10H18F3NO2 optimized with ForceField in AMS.
N        -0.34584208812265       0.33070787940395       0.02489310875377
C        -1.39265883560119       0.58308797059156      -0.99602227245358
C        -0.78997372605473      -0.90080133957328       0.73653626169078
C        -2.68653744182267       0.00171450952882      -0.46429162424174
C        -2.24022628399487      -1.18931601708882       0.35000933803933
C         0.97232438028549       0.13946500895798      -0.65248731915410
C        -0.29686608328415       1.48589445990753       0.96038479964785
C         2.15965109345231      -0.05654757594176       0.31794296486792
C         3.39124386157112      -0.57962889020807      -0.41641824637012
H        -1.16291880312967       0.06032222810104      -1.95429646369322
H        -1.51218265353410       1.66479802279156      -1.23563231992208
H        -0.71457381761921      -0.79954164668029       1.84378683782087
H        -0.17554054195372      -1.78894700822078       0.46300991972564
H        -3.37366899063380      -0.29456681410929      -1.28659880481136
H        -3.19377146408819       0.74184756667003       0.19267638400292
H        -2.88445603331318      -1.32722539733853       1.24536671884267
H        -2.28836534484139      -2.10696921660369      -0.27823913680875
H         1.19699643981009       1.01823362699314      -1.29995044578020
H         0.91912691654930      -0.74457980370745      -1.33013556425802
H         0.07057315832037       2.40087504380810       0.44416240288808
H        -1.30292048435959       1.70606087372299       1.37993704356293
H         0.37172743852443       1.28281331447647       1.82454252246490
H         2.42527950588032       0.91543927986092       0.78621060868555
H         1.89961160788517      -0.77422456733778       1.12387345747385
H         4.24049120225629      -0.66443062915270       0.29400818803978
H         3.18639343151390      -1.58456994046342      -0.84332867610257
H         3.67792414400887       0.11508366431863      -1.23440969034565
C        -4.36371483115281       5.46272102112280       2.75946946423291
O        -4.62429372684386       5.65535887695011       1.58249756473444
O        -5.01998961001252       6.02463337692014       3.62188651952385
C        -3.24552822269680       4.54281856557946       3.15155645130461
F        -2.30819457398728       5.24274581179828       3.88850985588288
F        -2.63283103268612       4.01553160468075       2.02816335876688
F        -3.74622443722515       3.50750440924158       3.91905234158900
