34
C10H18F3NO2 optimized with DFTB in AMS.
N         0.11792700828023      -0.19031716683181      -0.06401038950588
C         1.14031392736127      -0.81561366283446      -0.99502803179215
C         0.90812908613121       0.67008878544390       0.88726924900571
C         2.52340630946749      -0.44987120888115      -0.46339009340658
C         2.27727866315998       0.01559037022223       0.96757285858609
C        -0.59299104410262      -1.25561099754960       0.73240864994152
C        -0.83758595947604       0.63965924108117      -0.86281299551534
C        -1.48209529701355      -2.16871910825961      -0.09558865327974
C        -1.89358738438197       1.34655206983619      -0.02515617183610
H         0.97362539075704      -0.44422804318830      -2.00656127205787
H         1.00016185898227      -1.89391272957013      -0.98040263931652
H         0.39091200632541       0.72784113856314       1.84464842039274
H         0.98267095718775       1.67101369710989       0.45401412263564
H         2.96874712580670       0.34895455081903      -1.06211861200998
H         3.17014140873775      -1.32753340126612      -0.48755171552390
H         2.25862644683002      -0.84127546797872       1.64360148990064
H         3.02940465406626       0.72728393338374       1.30983513566887
H         0.19158111411097      -1.84422653804222       1.21713676917542
H        -1.18275819187124      -0.74973597251419       1.50015762831530
H        -0.23872817096626       1.37726362625712      -1.40343282557881
H        -1.31279871233317      -0.02111812779369      -1.59087821997285
H        -1.78562401470872      -2.99455988573889       0.54766509249864
H        -2.38029063040302      -1.66047946832417      -0.44526200426270
H        -0.95192927072633      -2.58763259669583      -0.94796026264336
H        -2.47451297012235       1.98707717929163      -0.68831970639821
H        -2.57312523652725       0.63912391280727       0.44612806277741
H        -1.44092757822076       1.96957610786416       0.74441809306696
C         1.69762373177379      -4.12434533405827       0.60127112745232
O         1.85573580998045      -2.93028594508275       0.89667420452663
O         1.38423256761354      -5.10817817073745       1.22985362523203
C         1.89265115482184      -4.34512070161001      -1.01090877925180
F         2.19486741550895      -5.57828209977160      -1.41583373133331
F         2.82990334561960      -3.51311397933397      -1.52545506923604
F         0.73010862213076      -3.99742722261650      -1.64758343565479
