43
C11H24F6NP optimized with DFTB in AMS.
N        -1.04385184834806       0.07335658435096      -0.15759847129551
C        -1.18119757328018      -1.03234186323377      -1.16287314307553
C        -2.25568257058937      -0.11149768828557       0.70238377275384
C         0.20884787171351      -0.09079099676345       0.65001385749442
C        -2.66478195537983      -1.06913031472417      -1.50297842694541
C        -3.37576606766819      -0.51019778839011      -0.25946910080303
C        -1.09363826011250       1.40335522124803      -0.86163178508561
C         1.48626152113704      -0.02076938174182      -0.18452853426663
C        -0.89211398065294       2.60921564941902       0.04090878265853
C         2.71065990998331      -0.14466553207043       0.72664040983122
C         3.99964775966442      -0.07932459804962      -0.10053373433753
C         5.23592548082594      -0.19486433546123       0.78828673802096
H        -0.55048486265877      -0.83084065906422      -2.02523298789139
H        -0.86316732954028      -1.95762357953979      -0.67680875135174
H        -2.04125996790493      -0.91729405312062       1.40823117057633
H        -2.46240725969536       0.80258720685168       1.25780322545217
H         0.20144236240474       0.68244769230630       1.42220483183824
H         0.13984973756202      -1.06519078778705       1.14278639003166
H        -2.86719252550357      -0.45414100397008      -2.38195561628511
H        -2.97743012096761      -2.09101340684474      -1.72190278075113
H        -4.01802916168688      -1.25862017151274       0.20809622896787
H        -3.99306863634598       0.35265809206471      -0.51661307550959
H        -2.06361946636304       1.46241931820343      -1.35663175381110
H        -0.32200702489091       1.38842991520588      -1.62914068829927
H         1.54037415260534       0.92247501412614      -0.73083627498453
H         1.49506959715793      -0.83051681907614      -0.91698892907228
H        -1.59716538264613       2.63438139965816       0.87131193406666
H         0.12216501882605       2.65276239659353       0.43413251859459
H        -1.05307653538397       3.49712601055135      -0.57027981881906
H         2.66980285222689      -1.09402538808841       1.27258318436955
H         2.70381644408562       0.66648886372929       1.46344269753159
H         3.99898878329126      -0.89134619168420      -0.83445799523953
H         4.02925704680604       0.86769762164513      -0.64798554027043
H         6.13741461974776      -0.14256122137166       0.17796610728369
H         5.26197736593447       0.61694441943385       1.51684909204434
H         5.23492348205285      -1.14429952047289       1.32597179284532
P         0.78285139739556       0.60587897138007      -4.18659960059576
F         1.16963683171010       1.63865786214759      -2.92187008206186
F         1.10673743614934      -0.67816156462591      -3.15092536888212
F        -0.80705513526921       0.58749720220957      -3.60841407346432
F         0.35702361428633      -0.44601193897032      -5.35277659650704
F         0.41852843983312       1.88422860017648      -5.12246596809365
F         2.33348036488807       0.61060377484785      -4.67115603086180
