43
C11H21F2N3O4S2 optimized with ForceField in AMS.
N        -1.29223030470088       1.25181588978172      -0.20357443437944
N        -2.70570187082491      -0.42725669259260       0.14860089603232
C         1.09072544808149       1.90611860956140      -0.18876910411547
C         1.60354543290436       0.47060341037084      -0.37414975357019
C        -0.28606486058464       2.10105053584348      -0.83697476754649
C         3.01345981981025       0.29969098577137       0.20136287607591
C         3.48450229996209      -1.15246974034805       0.05382228323299
C        -1.83685291174179       0.13116533745912      -0.71556524145110
C        -1.83550433893922       1.40928663790708       1.02018191545247
C        -2.71347654769468       0.36629956608784       1.23900743713518
C        -3.43141495921057      -1.68192806684751      -0.02941257916025
C         4.88263399364985      -1.34438870624158       0.63170695969911
C        -4.89734985992260      -1.40797874387421      -0.33681658198552
H         1.80435407713100       2.61642048974182      -0.66071246053565
H         1.02899850440020       2.14916996930069       0.89452380537195
H         1.61887653020511       0.22131366358805      -1.45826478631110
H         0.91593951364364      -0.23495534831984       0.14129290888490
H        -0.59322242953161       3.16510750366649      -0.74456815013412
H        -0.22027304617030       1.86293484914756      -1.92114536563861
H         3.00922218249371       0.57933938002019       1.27826409355329
H         3.71569348416107       0.97329856852441      -0.33797128313072
H         3.49856091448910      -1.43470471952316      -1.02181546243894
H         2.78184493592006      -1.83066328764913       0.58610412903422
H        -1.59118519926036      -0.27941207693900      -1.68798673968869
H        -1.60363962293173       2.21558973191248       1.70460601491100
H        -3.29781162562490       0.18916296088277       2.13305291954611
H        -2.98870819942258      -2.26115360264783      -0.86907318534419
H        -3.34824634824929      -2.29564551144317       0.89365895588450
H         4.89012669452561      -1.09364981955794       1.71393652688146
H         5.61271151009208      -0.69938896487578       0.09790877631400
H         5.18915286619881      -2.40489348940984       0.51056569766586
H        -5.36846068276316      -0.85435190797064       0.50256512535758
H        -5.43286036660122      -2.37015775865520      -0.47971728276112
H        -4.98254355407699      -0.80804199245171      -1.26798867255241
N         2.07126635986378       5.79544462688324      -4.68751635805908
S         1.75501341670511       4.19250834245429      -4.60128187857938
S         3.05922640719683       6.52391715976871      -3.60460734433901
F         0.89194536780748       3.87622901165268      -3.20411671226325
F         4.65231316289539       6.24935323035150      -4.03962136404324
O         0.94796039390037       3.77096429061281      -5.79553144006212
O         3.04358540709096       3.42017659467148      -4.56314455980015
O         2.82446689350920       5.96383105111536      -2.22953800422893
O         2.79616088371388       8.00241770696980      -3.60047589551364
