49
C15H28F3NO2 optimized with DFTB in AMS.
N        -0.96197824195933       0.24585507571016      -0.47902391317226
C        -1.90105938835381      -0.33879160931650      -1.49875622059111
C        -1.63789207157022       1.42030842152724       0.17658824734548
C         0.24144738568254       0.74029943372429      -1.24449259165477
C        -0.56962143324833      -0.75078177621285       0.57163694992848
C        -3.24685642568530      -0.74095442921091      -0.91112550678611
C        -2.99118362915043       1.07427552920505       0.78579093355689
C        -3.92430321418307       0.46010425558108      -0.25483468215120
C         1.36268093327922       1.33147936453051      -0.39592366458049
C         0.19392393931056      -1.97018976937499       0.05870671445441
C         2.40731851491302       1.95684553597532      -1.33113706057485
C         0.50215905910799      -2.90499611290442       1.23561094809007
C         3.56278509331947       2.56185065399456      -0.53804304953591
C         1.27112609176148      -4.13891194166147       0.76886332257019
H        -1.40383948118427      -1.19442993120039      -1.95834038263951
H        -2.04712094749591       0.43117898362578      -2.25865329186651
H        -1.76243770259947       2.18088971421107      -0.59633195704744
H        -0.96654442375245       1.80000375363760       0.94873719375280
H        -0.12723803292971       1.49950941478181      -1.93432214429953
H         0.61601865673155      -0.10023282162090      -1.83255247808091
H        -1.48389841073541      -1.08191216136791       1.06694366908675
H         0.03628792152802      -0.21517140618347       1.30646929029328
H        -3.13226796755076      -1.55928119919232      -0.19374591204885
H        -3.86233068417903      -1.10645770305536      -1.73698943115458
H        -3.41999698425606       2.00790701314493       1.15915472067829
H        -2.87374046495495       0.39998077843195       1.63985404420034
H        -4.15846465361065       1.20695369979150      -1.01795139540901
H        -4.85629323406839       0.14728619765982       0.22115956866074
H         1.83885166427505       0.56121167593009       0.21803987028286
H         0.97589086467590       2.10702813775523       0.26968683782932
H         1.13245709875128      -1.66901608698428      -0.41245214618683
H        -0.40004756481070      -2.51155286407033      -0.68187708453693
H         1.92908625668758       2.73473262320662      -1.93362548485033
H         2.79024232150955       1.18973917603538      -2.01195301131402
H        -0.43531357667303      -3.21447217149270       1.70923407767174
H         1.09368130211754      -2.36520187555256       1.98235815040988
H         4.06342955621278       1.79675168636857       0.05723166534909
H         3.19942206461580       3.34216009325135       0.13156771081956
H         4.28841084207236       3.00120201039764      -1.22185560762310
H         2.21774379907024      -3.84904060067083       0.31167514955194
H         0.68780283961254      -4.69883719111976       0.03718845453604
H         1.47922391758436      -4.78809231753630       1.61885278042307
C        -2.35868632611652       4.20229273381574      -4.35641035398302
O        -1.43790853422107       4.95210651263028      -4.52476172987470
O        -3.48297790269805       3.99981448812182      -4.72201772008712
C        -1.89978362896976       2.96887752145852      -3.15614087695283
F        -2.94773747990332       2.43024669763004      -2.45517690271464
F        -1.04588795086988       3.40430546298434      -2.17833839391191
F        -1.26559739838894       1.87234830890992      -3.68120138396272
