44
C12H26BF4N optimized with ADF in AMS.
N         1.46681889559243      -0.46128996947611       0.10618402297788
C         2.81362163664621      -0.21888262847101      -0.55815374412095
C         1.80919931824763      -1.48112150580529       1.16872710227250
C         0.96025371101429       0.81105173423606       0.76806197904115
C         0.47857926825211      -1.00827898256532      -0.90002596590788
C         3.82578642328212      -0.22493024774547       0.58488028253272
C         3.17290290653944      -1.05943174164139       1.71812429500849
C         0.48104798119072       1.88048144999095      -0.19478446152356
C        -0.87130008916615      -1.38141095345048      -0.31876417504338
C         0.15564797906477       3.17386429445210       0.55482071398319
C        -1.78712690546509      -1.87617885480874      -1.44267251952450
C        -0.33890931764736       4.25967186054512      -0.39868036691733
C        -3.17758175399822      -2.24968195390859      -0.93981382375416
H         2.76951749610300       0.69155453627700      -1.17035167102085
H         2.95875934825273      -1.05735139922752      -1.25268057021622
H         1.86633292941004      -2.44887868596901       0.64827931056254
H         1.00537534569915      -1.52045112803668       1.91439362858206
H         0.15432728222095       0.50192836113346       1.45170862153984
H         1.79375893259589       1.18482711342349       1.38195300690954
H         0.38339799035344      -0.26013899042320      -1.70061670024975
H         0.97203120041091      -1.88453582957859      -1.34760864227538
H         4.77181615780431      -0.66466520741721       0.23899268409041
H         4.05327362909061       0.79507499556483       0.92696413478271
H         3.06423637434700      -0.46689481476853       2.63825858939278
H         3.76358285684260      -1.95017693335866       1.97595482200473
H         1.23387963886022       2.08329585508947      -0.97297102871412
H        -0.41616844413185       1.54061460867923      -0.73531907797600
H        -0.77481503895972      -2.17130743555043       0.44850041309826
H        -1.34634007910720      -0.50960387345768       0.16425519082113
H         1.05687308065829       3.53046997069219       1.08655304438190
H        -0.60999060946646       2.97870585749326       1.32866957770820
H        -1.85694898669464      -1.09024621483264      -2.21443055146339
H        -1.31946900755504      -2.74848884529149      -1.93316568122421
H        -1.25293936734402       3.93652903094245      -0.92027770313355
H         0.41833074885728       4.47597695705586      -1.16745774706069
H        -0.56334900690534       5.19190473001095       0.14099069995827
H        -3.67520365208155      -1.38455600230061      -0.47281017658050
H        -3.12838762489122      -3.05628715560078      -0.19035436733694
H        -3.81447668647161      -2.59668348676969      -1.76710271846990
B         1.60344480537718       0.93193529875608      -3.68907149416362
F         0.23626087957226       1.01994898824973      -3.24315284762515
F         2.05382751957387      -0.41038165633897      -3.47050187006766
F         2.39250903488271       1.80836466071476      -2.85220412100809
F         1.71596154094330       1.29651773718709      -5.02776926917054
