56
C16H34BF4N optimized with ADF in AMS.
N         0.26890447319531       2.10121582211431       0.07850936221748
C        -0.48168352445036       3.05006896718695      -0.83008433570412
C         0.96965715577988       3.05357521687717       1.03751322821801
C        -0.67138400461647       1.19108338082402       0.84130915284959
C         1.27620388998652       1.31265196522067      -0.74492129944462
C         0.45183265842087       4.24367506442861      -1.04397665762057
C         1.41939501143478       4.22573533832321       0.16950406409770
C        -1.47667112854238       0.24092674627722      -0.02519075375070
C         2.06823316423398       0.28062042176719       0.03460572407188
C        -2.37052912719732      -0.61986916007284       0.87318854053097
C         3.04163011995651      -0.45608437869408      -0.88784279728615
C        -3.19732633497292      -1.63213286878132       0.08492166780220
C         3.85886294794698      -1.50444025551741      -0.13205359038779
C        -4.08249162504714      -2.50448111694022       0.97296047145609
C         4.82665310945101      -2.26787565031961      -1.03368091019224
C        -4.90223205868214      -3.51291375276550       0.17223789154423
C         5.64006619392984      -3.31567006015745      -0.27705191856749
H        -0.77392900916193       2.52589168894536      -1.74823187049416
H        -1.38813593335220       3.34095240599109      -0.27931747878415
H         0.20883338529264       3.34598657837536       1.77422155844682
H         1.75411845041599       2.51935537249067       1.59044046832678
H        -0.06668240922586       0.64767533524870       1.58111929520917
H        -1.33204203497049       1.86487408453536       1.40737759944505
H         0.69732534604190       0.83880135458638      -1.55242773804596
H         1.94288834037140       2.05632451676518      -1.20677125721164
H         0.99984618679616       4.15647048121956      -1.99352315183693
H        -0.13530810935368       5.17177013097617      -1.09770000534929
H         1.37481013937347       5.15768741865728       0.75046221630869
H         2.46168015302800       4.10604845240077      -0.16028952907402
H        -2.10376066045162       0.78680986987577      -0.75318196482277
H        -0.81160946018001      -0.42668517763309      -0.59909357110213
H         2.61726693811337       0.74666894230770       0.86743316439334
H         1.39620829191992      -0.45072500386012       0.50754883605969
H        -1.73551139266057      -1.14227455037968       1.61038838137574
H        -3.04489370423623       0.03488403071013       1.45533954681248
H         3.72919669365572       0.26467029947502      -1.36965405613204
H         2.48358698447843      -0.95064822547133      -1.70650706879870
H        -3.83099784071879      -1.10115399768555      -0.65112678000871
H        -2.51897578176649      -2.28201903723450      -0.50020706341488
H         4.41759550638167      -1.00990969714002       0.68329956528197
H         3.17117999859283      -2.21550108084350       0.36129492753845
H        -4.75825171354038      -1.85693769247270       1.56112459969151
H        -3.44827280036200      -3.03453458487342       1.70598606777791
H         4.25772638552993      -2.75664564345854      -1.84648495534782
H         5.51054059929558      -1.55007550290258      -1.52305172652678
H        -5.56323973310925      -3.00264262573845      -0.54692774548369
H        -5.53293947380126      -4.13244537903502       0.82884164288573
H        -4.24570130674330      -4.18893972855114      -0.39920604302562
H         4.98089197833453      -4.06134059061449       0.19518313006502
H         6.33011203968596      -3.85058548899508      -0.94816646323700
H         6.23827540624849      -2.84872910748489       0.52150030104018
B         1.45269029869079       0.75989021640299       3.73420581813258
F         1.02533491434174      -0.38597029358152       2.97169711331925
F         2.59488572304602       1.33294984214637       3.06215394952557
F         1.77759380273091       0.39794997447583       5.03922540396374
F         0.39559499474166       1.72546361719901       3.70544723506215
