41
C11H24BF4N optimized with ADF in AMS.
N        -1.50808927192133       0.76485876093511       0.23835071059611
C        -2.09993116819101      -0.03701509091666      -0.91131982625796
C        -2.56167016450947       0.59503719980464       1.32542922302947
C        -0.20581391680667       0.15787619483734       0.71182990577805
C        -2.73257902214189      -1.26621693524305      -0.26396045031605
C        -3.05249826655846      -0.84736076085821       1.19415973057876
C        -1.36132823720661       2.21724999033778      -0.16959659334976
C         0.97340228873062       0.32282660525996      -0.23340564521835
C        -0.87623768833744       3.11677995986950       0.94782611293488
C         2.18773975891179      -0.46421605673951       0.26715187846971
C         3.40457992587398      -0.30555121455055      -0.64355764802275
C         4.61418011540876      -1.09546110365337      -0.15098959467710
H        -2.86422066983797       0.61081140754221      -1.36609979840145
H        -1.31035476898352      -0.24948819116409      -1.64227277048574
H        -2.10963891933949       0.83671908536663       2.29613228951500
H        -3.36205978060927       1.31160198470039       1.08831223434004
H         0.01775161588862       0.61733171218419       1.68630212869419
H        -0.41424400691878      -0.90810610092872       0.88889535470633
H        -3.64845798012090      -1.52406759060879      -0.81309826959887
H        -2.06000258109054      -2.13752676191978      -0.29056628644312
H        -2.56102626413279      -1.51468896534241       1.91838109121533
H        -4.13424273492856      -0.86785989987618       1.38279408525819
H        -2.35992781951890       2.52615011303362      -0.51265472003073
H        -0.68131350816793       2.22831821156625      -1.03381358900891
H         1.24817223067074       1.38708100543936      -0.32151534915433
H         0.71398088297816      -0.02787386451583      -1.24659134247327
H        -1.58614684804239       3.12970374882382       1.78766075799598
H         0.12640625199784       2.85502911445846       1.31841840213698
H        -0.82899151359100       4.14238742860397       0.55277039757929
H         1.92762103288606      -1.53619171717563       0.34455133519988
H         2.45127844707328      -0.13187394840731       1.28880797190567
H         3.13799554774429      -0.63285739916621      -1.66509073095918
H         3.66552255339578       0.76566955760928      -0.71913242568499
H         5.47432997192675      -0.96828901133723      -0.82470230957344
H         4.92088848144354      -0.76414474248640       0.85445744267778
H         4.38700694814825      -2.17236921412802      -0.09391184563715
B        -5.03782606845314       2.11460075649375      -0.82584715120468
F        -6.26807001767983       2.63790108719272      -1.20661326752104
F        -4.07875497625045       2.19712799788497      -1.89903506019994
F        -5.14318767388408       0.73696115902413      -0.44254380253868
F        -4.48422201655601       2.83959399254987       0.29217157044584
