39
C11H19F3N2O3S optimized with ForceField in AMS.
N         1.90232859356204      -0.94822402963646      -0.23434613280673
N         3.13084877008813       0.89913677603531      -0.10284505649986
C        -0.37945714689771      -1.88300963914226      -0.08250905787468
C        -1.04590347255672      -0.52357573937548      -0.33912933672398
C         0.99855623131699      -1.97469636137388      -0.75087083779463
C        -2.45768090061697      -0.47470719977347       0.25424180936659
C        -3.09404209666091       0.90260878987192       0.03258969732923
C         2.36587991463732       0.12833126759815      -0.89911303002450
C         2.39451543332222      -0.85621069669197       1.01817701726726
C        -4.50650887691468       0.95830504380460       0.60628306535102
C         3.15696322159273       0.29098942326906       1.09909263757138
C         3.77164247824753       2.16007647822858      -0.45014943847733
H        -0.27250144828354      -2.04839822500522       1.01180626361078
H        -1.02213204692227      -2.69347624673231      -0.49026038060514
H        -1.10088130755445      -0.34016719452042      -1.43479410382505
H        -0.43278201421642       0.28081847325428       0.12291060921214
H         0.88215770936115      -1.86300285464483      -1.85161739011651
H         1.43714216797043      -2.97785284098968      -0.56033989230775
H        -3.08642983052854      -1.25481163619130      -0.22875643003410
H        -2.40701727450625      -0.68515137966078       1.34543795730804
H        -2.47546019739111       1.68459285216970       0.52505187550413
H        -3.13908861658525       1.12450170453743      -1.05598183346325
H         2.12869108715275       0.35934053189531      -1.93082718278828
H         2.19974015952952      -1.55975928653947       1.81707339990880
H         3.67977514034391       0.65958405068299       1.97209537737496
H        -4.48700848837088       0.76328547312952       1.69962954936334
H        -4.93797743833388       1.96674387994522       0.43311530027288
H        -5.15429164218087       0.20492291022400       0.10969395613488
H         4.86476410801188       2.07877780714011      -0.28081005821001
H         3.58812796125255       2.41055032679184      -1.51693001426349
H         3.36254175486616       2.97353345420377       0.18519371087200
S         7.97997789317325       2.28922154873793      -1.58946829903627
O         6.81931437387148       3.28347945202599      -1.73871022262951
O         7.90721788585353       1.88378245759483      -0.10991974330332
O         9.22089137647812       3.19222502047382      -1.64407182913941
C         7.97498432016977       0.91238935568871      -2.76986651223131
F         7.97338847440503       1.41106057212761      -4.05828674629213
F         6.84582987408266       0.14096917230204      -2.57267663973666
F         9.10234806513133       0.13719128294484      -2.57747116626352
