30
C8H12F2N2O4S2 optimized with ForceField in AMS.
N        -0.49974453366445       0.00372713386215      -0.42308639305182
C         0.92846208284694       0.00518960901411      -0.75892205416543
C         1.76356643760878      -0.00491694924710       0.52348962254507
C         3.25525070457277      -0.00912811855527       0.21696236415057
C        -1.15413217055775       1.19062479483996      -0.23620254929611
C        -1.15514709504312      -1.18497651227025      -0.25174337632301
C        -2.50284157665624       1.20663090881785       0.12659606059191
C        -2.50384118505122      -1.20464258089147       0.11084543708959
C        -3.17920303549511       0.00008109400853       0.30009918837597
H         1.17884104695257      -0.88422950639784      -1.37970927306702
H         1.18051102937850       0.90304778876736      -1.36672962994017
H         1.51538691837790      -0.90871205270596       1.12103678313491
H         1.52198327175309       0.89393287489849       1.13120398339325
H         3.52920966590558      -0.90979949730638      -0.37252689821314
H         3.81844793289292      -0.02543904326909       1.17187807628980
H         3.53865507150551       0.90333835017208      -0.34960089005119
H        -0.63137715173210       2.13236391161818      -0.35631035396630
H        -0.63319017994821      -2.12550781504312      -0.38420766968475
H        -3.01603620261392       2.14740015758571       0.27770015432543
H        -3.01777399782969      -2.14690689755819       0.24966713140509
H        -4.22290005017326      -0.00137724039170       0.58612291142167
N         6.53507321957046      -0.58926839135880       0.11778022251169
S         7.35218643001243      -0.65720987918898      -1.29797695062503
S         6.78791017166427       0.61924186127733       1.19187292625013
F         8.91490333961750      -1.18126809507467      -1.00380712358603
F         6.08914861752375       2.02667559514321       0.61279489404006
O         6.66974863994949      -1.62052313203492      -2.22706316125399
O         7.40477761311488       0.70548508260605      -1.92955730042711
O         8.26210235294594       0.84518936544559       1.37387738846186
O         6.16484753707181       0.25832507253713       2.51045561156409
