18
C4H12ClN optimized with ForceField in AMS.
N        -0.00531605139611      -0.02288415690377       0.01404949633752
C        -0.88938352604372      -1.15948241005966       0.35436114927037
C         0.65380222775907       0.47262680789842       1.24347057129151
C        -0.80812856131360       1.06406089353446      -0.59016542972921
C         1.02341230195258      -0.47189964558122      -0.95087737329962
H        -0.30903045164664      -1.99172977290603       0.81239521483463
H        -1.67489074250149      -0.85098239165026       1.08013593531803
H        -1.39754745479590      -1.55561035009072      -0.55321269201449
H         1.33511416976236       1.32324638384328       1.01727144034321
H        -0.09692715354750       0.82339862278397       1.98713581315179
H         1.25908847955975      -0.32968728412991       1.72205431956575
H        -0.17000870329376       1.94202544311909      -0.83396485593252
H        -1.29741360479902       0.72458301377052      -1.53077727750321
H        -1.60720251917893       1.40665823675228       0.10488497771266
H         1.70572426966039       0.36351764770403      -1.22540313509757
H         1.64213454657600      -1.29146704794560      -0.52136730750774
H         0.55562427897440      -0.85289242354769      -1.88675926027405
Cl        0.65631736427211       4.37316061800879      -2.50037589756704
