56
C16H34BF4N optimized with ADF in AMS.
N         0.68396463918806       1.54877215400608       0.02784174126374
C         0.19558824898361       2.61754217515054      -0.96806074280320
C         1.49356593836178       2.33364226222943       1.06222765532530
C        -0.49184228541588       0.89821742641010       0.72639272119249
C         1.55695231884671       0.53618883381563      -0.68812165621440
C         0.53300842845157       3.97803253720782      -0.34877626371035
C         0.81443161040470       3.68692355815287       1.12875125953677
C        -1.36656651645067       0.01397431705623      -0.14855493022922
C         2.15842309243111      -0.51783057392911       0.22151180191325
C        -2.65032804077206      -0.38168086551023       0.58857650553989
C         3.24804565786299      -1.28562147735029      -0.53015045551680
C        -3.54879780903282      -1.30189870922919      -0.23797396648056
C         3.89160583496230      -2.37439722238746       0.32392177878041
C        -4.83794091376578      -1.69604536662672       0.48312285819960
C         5.06274091774618      -3.05914417351489      -0.37687796978494
C        -5.73566762896112      -2.60276373906340      -0.35676745606334
C         5.69748180705948      -4.15860651490511       0.47111467945201
H         0.73402900551577       2.45845421201027      -1.91034930404039
H        -0.87998087204948       2.45840426540302      -1.11375723130248
H         1.50887898266044       1.76664005553877       2.00111411055139
H         2.51296667576888       2.43260736614639       0.65936197076103
H        -0.07443684017567       0.31351553313717       1.55937934006442
H        -1.08086165077765       1.72328148552974       1.15488550298475
H         0.93716950789664       0.08608338907620      -1.47814721730272
H         2.35029709304570       1.13300870936851      -1.16102765978957
H         1.45649909471475       4.35747721276596      -0.80985566232463
H        -0.27790723114608       4.70439727652998      -0.50216700741871
H        -0.10637294276465       3.65641733983693       1.73507073467188
H         1.49480921442436       4.43089187489553       1.56777021427217
H        -1.63568012302746       0.53207064208911      -1.08451591269733
H        -0.81658370315704      -0.89810577193201      -0.43395494580084
H         2.62886552402205      -0.03511305872673       1.09377318877494
H         1.39098446062711      -1.21999235552406       0.59520519248155
H        -2.39221549051516      -0.88115655879695       1.54100819087460
H        -3.21378778094827       0.53113595605030       0.85778316059991
H         4.01631118651151      -0.55905105461515      -0.84702918385192
H         2.82785036949159      -1.73476474492325      -1.44941436283843
H        -3.80439528650800      -0.80170006347934      -1.19113288672215
H        -2.98803383256048      -2.21644043313624      -0.50681995074151
H         4.25007281576576      -1.92622642121088       1.26983631676132
H         3.13415590913414      -3.13212420718414       0.60264817876383
H        -5.39318404562244      -0.78154451121835       0.76027180632489
H        -4.58264711714380      -2.20415003947674       1.43088681780583
H         4.71523916025710      -3.48118809255540      -1.33753818316560
H         5.82032140837073      -2.29556195155629      -0.62802363302684
H        -6.03905418735850      -2.10413761256980      -1.29119100439528
H        -6.65116055343767      -2.87710983173676       0.18972405473657
H        -5.21482601174663      -3.53482486512792      -0.62862198369197
H         4.96578807843308      -4.94891750812562       0.70521180539022
H         6.54722349616228      -4.62792517691886      -0.04843138209114
H         6.06910907317626      -3.75242237352732       1.42582230979931
B         4.13746723714560       3.15957324026394      -1.21506737798584
F         3.70943966249497       4.20836320926728      -0.34524337203854
F         3.05829624924542       2.87790974269495      -2.13641744934943
F         4.33104847673734       1.97303755567480      -0.41778144965689
F         5.29996559333734       3.49525968655064      -1.90192812288705
