37
C9H20F6NP optimized with ADF in AMS.
N         0.32374008154768      -0.03639442188551       0.22773413975456
C        -0.31288787094096      -0.76697901510798      -0.93336173292385
C        -0.86684464718220       0.21539979025103       1.12052511855343
C        -1.65856515803661      -0.06360600038780      -1.15978364331305
C        -1.96385973134960       0.67806099183367       0.16949336388231
C         1.38769407484923      -0.86644580893098       0.93686735000586
C         0.92098779831948       1.27616090181612      -0.29602306085568
C         2.26896511714214      -1.69340251005192       0.01527255033173
C         1.21654595021650       2.30517845852483       0.77139296134892
C         3.42535023469899      -2.29078708981553       0.81786313151869
H        -0.45431822339579      -1.80823178810617      -0.61125346706557
H         0.37519421181105      -0.74072991538136      -1.78765341427892
H        -0.59292609208855       0.92084570344104       1.91391908889871
H        -1.12031583308397      -0.75630329526414       1.57087936782237
H        -2.43055270316249      -0.80733225125980      -1.40386596050208
H        -1.60636271186838       0.64015252070446      -2.00252449155788
H        -1.92639227451675       1.76841064699779       0.02952335107446
H        -2.95561813144161       0.43047802689729       0.57384478843885
H         0.84860474294217      -1.51125898935224       1.65036490349161
H         2.00180897590056      -0.15109064841421       1.50037047504844
H         1.83768751072344       0.98932570370750      -0.83045327312626
H         0.20100800114387       1.66699041474585      -1.02952829555935
H         1.67809415086005      -2.50247596606170      -0.44768880281398
H         2.68944757311109      -1.06174444522867      -0.78200946313027
H         0.30930157659687       2.76915032122514       1.18782589979607
H         1.84407995448089       1.90205156563239       1.57781781807184
H         1.82545485137726       3.08580573452910       0.29107356474693
H         4.08869977260333      -1.48958582330553       1.17442409574379
H         3.06625331875806      -2.88043702119463       1.67735442391412
H         4.02322539228153      -2.95215882533611       0.17524011017633
P         4.75529001957460       1.36664998854263      -0.99708913979442
F         5.52554400340530       1.75022322656350      -2.38576910204799
F         5.58496395627050      -0.05041741958512      -0.87630535314915
F         5.86632961444418       2.15221528585118      -0.09103430113649
F         3.91000178630387       0.95341649599230       0.40599119461892
F         3.82608811773035       2.74280139864816      -1.10119955266776
F         3.56201637157390       0.55959226436541      -1.89283819141523
