54
C16H29F3N2O3S optimized with ADF in AMS.
N         2.98807483976964       0.75218111938566      -0.42238037122890
N         2.78272712433563      -1.36151086128053       0.03931877329522
C         1.50593118030866       2.70077010149420      -0.82425129087008
C         2.86104921525797       2.21491102035273      -0.31839409498970
C         1.01614722177621      -2.69985246836006       1.16788674604029
C         2.48883094118685      -2.60119837993252       0.78173662517854
C         0.33659840142986       2.19402701440729       0.01331458103521
C         0.09155257509776      -2.86427459156653      -0.03675013063985
C        -1.02099954818056       2.53964441060411      -0.59334830027215
C        -1.36744840486952      -2.54429878817603       0.28573593438986
C         2.61985628723595      -0.12172113863728       0.52527265265767
C         3.36585412387788       0.05838533112774      -1.54855898312999
C         3.24318239018402      -1.26911368497405      -1.25513309198268
C        -2.17168093477728       1.87915592876649       0.16309885489476
C        -2.25787987410556      -2.54590299824681      -0.95571011035528
C        -3.51927570076989       2.09117485934718      -0.51995586105719
C        -3.71037746069462      -2.20380843813991      -0.63764777284660
H         1.53710964554452       3.80529884275930      -0.82493009639346
H         1.38650763569443       2.37440300563707      -1.87120583850246
H         0.73411326867847      -1.79349347073995       1.73475049229992
H         0.91218491318730      -3.54275153354823       1.87429295628402
H         3.69006895186456       2.64320960735393      -0.90012485208478
H         3.01847919828263       2.47386663009294       0.74135232450592
H         3.14870613076412      -2.62456569709282       1.66282088478316
H         2.77714444208358      -3.42901734636188       0.11690356843501
H         0.40779719195022       2.58795129917652       1.04689258497434
H         0.38628933370648       1.09363673769858       0.05904354763257
H         0.17986082128037      -3.89311932490824      -0.43210091289390
H         0.40684437674595      -2.17761324833449      -0.83701757354209
H        -1.16329977929312       3.63654314167802      -0.62047872595182
H        -1.03749732926952       2.18180904763830      -1.63749265438437
H        -1.40969782729486      -1.53637135509110       0.74111311152841
H        -1.76390801991833      -3.24882182699671       1.04281915029901
H         2.26330865183415       0.13409399429720       1.51383340256419
H         3.57523238956093       0.55658528491407      -2.48766378074725
H         3.38149690718008      -2.14256702145140      -1.87814159249456
H        -1.96360497319568       0.79594394666726       0.22296391550916
H        -2.20547367707032       2.25637583304129       1.20321077253129
H        -2.20306035917499      -3.53436033793591      -1.44796353727654
H        -1.85291522468627      -1.81480025409808      -1.67429361370490
H        -3.75389022338992       3.16448723973778      -0.61237258954594
H        -3.50116393732633       1.66177185498595      -1.53411991350851
H        -4.33649764058932       1.61224738992754       0.04067649810431
H        -4.32679512069887      -2.20325766157679      -1.54879897025908
H        -3.78546712080225      -1.20107070748625      -0.18579510810885
H        -4.14862202491201      -2.92613153770559       0.07135438011302
S         0.35501340478513      -0.03513766878771      -3.31763566404271
O         0.42877497420504      -0.39869545902653      -1.88309633155063
O         1.52357276975992       0.73268785462521      -3.79621669683822
O        -0.96148023430732       0.41657667693658      -3.77268401535298
C         0.56312301786141      -1.69261902789059      -4.18699293334596
F        -0.39871954378789      -2.57925196291872      -3.81455153086380
F         1.77567232293846      -2.27243254425588      -3.88795619442079
F         0.50693692114625      -1.54942201573229      -5.53272360416987
