43
C11H21F2N3O4S2 optimized with ForceField in AMS.
N        -1.29037912655137       1.28096931298795      -0.26196703985688
N        -2.73071711490106      -0.37907707078474       0.07764481442824
C         1.09893782636503       1.90342151154547      -0.20577072975283
C         1.59271984235762       0.45819652154131      -0.36510054088142
C        -0.26178525510994       2.11476082567410      -0.88134651858303
C         2.99843335009921       0.28247354515709       0.21829215278164
C         3.45947250767215      -1.17493021342519       0.09834794063575
C        -1.84724144019737       0.16840756228508      -0.77944905020438
C        -1.83773122532523       1.44158876583967       0.95970746059236
C        -2.73124029147683       0.41110015140922       1.17072456612870
C        -3.47506446461391      -1.62250130212385      -0.10697510504486
C         4.87345110832395      -1.35292526791366       0.64131830178834
C        -4.96394532485226      -1.33641555168522      -0.25951668124922
H         1.83246886690736       2.59736240776428      -0.67131298442182
H         1.02180199366430       2.15846802653544       0.87380987651646
H         1.60851155055558       0.19002365612036      -1.44462854780206
H         0.89459797713624      -0.23010363203609       0.15955457172523
H        -0.55633859192257       3.18314167331171      -0.79714609741288
H        -0.17759199943777       1.87594451145986      -1.96452643755864
H         2.99364737371872       0.57935226418786       1.29037337635089
H         3.70797904406946       0.94156384165364      -0.32916717705253
H         3.44320665222728      -1.48787796888422      -0.96860696677183
H         2.76918125920608      -1.83427845447014       0.66865485656454
H        -1.59508091278834      -0.24762509036506      -1.74722496384076
H        -1.59511726538739       2.23878851032517       1.65044772133581
H        -3.32124222669229       0.24029751878302       2.06190627773152
H        -3.11520631965884      -2.15086241544397      -1.01692719416489
H        -3.30748989602900      -2.28881225646855       0.76667021169727
H         4.91752567617083      -1.05892508911451       1.71162634472276
H         5.58602595125859      -0.73188060615682       0.05925220380846
H         5.17499812517373      -2.41785730145228       0.55192072290677
H        -5.35610639443003      -0.83687577970390       0.65137023061832
H        -5.51265682256212      -2.29006578676949      -0.40893081155283
H        -5.13605725108772      -0.68146884132309      -1.13997551246692
N         9.68338293813137       1.51928069723891       1.61388705749957
S        10.73770484636955       1.94747378795164       2.78957468354745
S         8.76521008416152       0.17061329755156       1.74260625506944
F        11.99872272159751       0.84682646988554       2.82989757844345
F         7.47889097777108       0.47569884216129       2.76988456099325
O        11.27895098009289       3.31906083394966       2.50423508862342
O        10.04510342596406       1.94300004732041       4.12314962510553
O         9.58125236921387      -0.95948968893067       2.30438684321624
O         8.24090986041612      -0.20780868178881       0.38747981888639
