45
C11H24F2N2O4S2 optimized with ForceField in AMS.
N         1.99313067051290       0.44585291841341       0.12619758877524
C         2.24156949375142      -0.86811193358466       0.78171247548999
C         3.11287269475222       0.62965546294059      -0.84640687494417
C         0.69242343008881       0.45256039012095      -0.61209922890900
C         3.67402543731658      -1.26797233338950       0.48937294749809
C         3.95572053811367      -0.63513257623687      -0.84616693372687
C         2.03110377278623       1.53896620910665       1.13228526661368
C        -0.55815434971027       0.26397313428286       0.27841892489973
C        -1.81458238981918       0.09460860800864      -0.58572791145566
C        -3.06555635209439      -0.10041901235509       0.27924685343653
C        -4.31979812857927      -0.22269145695314      -0.59404463189023
C        -5.57210801049591      -0.41351508831022       0.25647471399614
H         1.58664764394715      -1.66746669068858       0.36419513070954
H         2.06730378384774      -0.84733712163944       1.88167759918385
H         3.77664243444269       1.48424833588019      -0.57674658507299
H         2.76381846482682       0.83794124530997      -1.88342435522653
H         0.70113174756626      -0.35325721310875      -1.38316583851803
H         0.57612337656956       1.41453515677880      -1.16277279178171
H         3.79700239330090      -2.37231443182099       0.45195437433756
H         4.35102158523491      -0.83920848710856       1.26081427936498
H         5.03768293044540      -0.41381992306553      -0.97197714047423
H         3.61615002082478      -1.31348569134176      -1.66050541017471
H         1.29491169686273       1.37285637035214       1.94731764051681
H         3.03055132912068       1.59844273450193       1.61885655654438
H         1.81549190201724       2.52195720541229       0.65677700072446
H        -0.44420805823917      -0.62729926196238       0.93071233493776
H        -0.69943393115478       1.15826679881387       0.92181382500327
H        -1.69008114646370      -0.78885391164088      -1.25060172732735
H        -1.94333379760930       0.99878429903242      -1.22148765527793
H        -3.17839134334474       0.76704186945782       0.96684389518092
H        -2.94905747093999      -1.02333909202759       0.88990529620126
H        -4.44064113033200       0.69714004104108      -1.20721480292249
H        -4.21600977451623      -1.09158663715848      -1.28020238059677
H        -5.71302821287969       0.45355201658860       0.93640753410874
H        -6.45985150939807      -0.49315656654605      -0.40567757422693
H        -5.49255742595416      -1.34401430653348       0.85781976632257
N         2.71857087534419      -0.46525738595699      -6.24159521390992
S         4.19860712447166      -0.51362302343401      -5.54624709138298
S         2.10938855760221       0.92918736281177      -6.84219180275320
F         4.16300748129005       0.33111922066403      -4.10288310267161
F         2.99120046606091       1.38641382108665      -8.18960730742634
O         4.58341608361056      -1.94129532471494      -5.28051319616585
O         5.21175247501069       0.12439880803239      -6.45476098694955
O         2.20428205425920       2.01563316840715      -5.80790616790747
O         0.67287377425268       0.72413471693370      -7.23128739125302
