46
C12H26F6NP optimized with DFTB in AMS.
N         1.43089899688361      -0.64092083014687      -0.19059492371216
C         2.46025128626939      -0.58785133818250      -1.29043852103520
C         2.04818882630360      -1.49593859613403       0.89520573469046
C         1.16222409494900       0.73615721371621       0.34579134776352
C         0.18999803504123      -1.28796936468251      -0.72967802412431
C         3.20571490832828      -1.90700152753816      -1.20204611203707
C         3.29424562330947      -2.15413253450981       0.30124933994189
C         0.61332083624813       1.71014849584932      -0.69197472908562
C        -0.98978866563129      -1.31754134269513       0.24107956059830
C         0.68200399810890       3.13441029652064      -0.12438956771554
C        -2.10311537125165      -2.20369197619287      -0.33229010199291
C         0.12675584807582       4.15006446437939      -1.11922683855852
C        -3.31819461597973      -2.22565151660658       0.59234265736518
H         3.13353996051781       0.24035695211746      -1.07211525236686
H         1.96745103807931      -0.42579241631534      -2.24831703094959
H         1.31295558385401      -2.23036856516765       1.22459521235453
H         2.30657369421307      -0.85094886297569       1.73427252003621
H         0.47361039678249       0.63317675361831       1.18689701207164
H         2.11599169864352       1.10772882878056       0.72154410277481
H        -0.09586381124912      -0.74363815579232      -1.63294989028341
H         0.46696844634306      -2.30626478805144      -1.01522885702985
H         2.66045287601162      -2.70875405832022      -1.70783258136880
H         4.19488310536719      -1.81112078398527      -1.65023031330924
H         4.18770981898976      -1.67237386808257       0.70217489953996
H         3.32745110203847      -3.21788318029082       0.54033636790745
H         1.21294550926107       1.66602891733516      -1.60422985901386
H        -0.42118124630060       1.46242891201784      -0.95022794109414
H        -0.68320188982327      -1.70865393514025       1.21467411650760
H        -1.38003489638927      -0.30767275634996       0.39095119620348
H         1.72512688899184       3.37435098978140       0.10068672971176
H         0.11224890826387       3.18248435275493       0.80941013154091
H        -2.39796127981626      -1.82419076749364      -1.31607993793076
H        -1.72479606366539      -3.22261675441594      -0.46484899135502
H        -0.91815246457688       3.93466555824018      -1.34862440416818
H         0.69919744964011       4.12672246114162      -2.04716411670529
H         0.19086874248890       5.15260983364444      -0.69708959518249
H        -3.72054518751335      -1.22003586505594       0.71879224430169
H        -3.04546244324696      -2.61747722239531       1.57279497032588
H        -4.09502736814723      -2.86060833415366       0.16729793041531
P         5.08263979579473       1.48249153128555       0.64991575456132
F         4.86929479215552       2.71890094279366       1.68761142033893
F         3.96429140873179       0.57024792528597       1.53123848210037
F         3.79058505928080       2.05162329523087      -0.27202897294808
F         5.19869678984869       0.19442505271711      -0.40855840964171
F         6.11401848532758       2.34218747550062      -0.26113713785001
F         6.28670143784827       0.86126500466323       1.54847227030740
