43
C11H24F6NP optimized with DFTB in AMS.
N         0.28530039608040      -0.39897934025239       0.05637440938778
C        -0.28869630837059       0.97888402204366       0.20040410952317
C        -0.22739117109353      -1.00771588826142      -1.22038191310860
C        -0.07882984098373      -1.22786327258787       1.25817493109253
C         1.78127333279973      -0.28652081986196      -0.09692418790245
C        -1.81242692404017       1.00958159027118       0.13446681245730
C        -1.74553896445259      -1.03010317540992      -1.30463020575936
C        -2.31896702924911       0.37812155635842      -1.16126819850922
C         0.52727821817566      -2.63029063399011       1.29292477868730
C         2.53311982754373       0.29444490836694       1.09586487290415
C         0.07452171995789      -3.33859017408866       2.56845360128721
C         4.03211283144899       0.21203908584874       0.79990038182448
H         0.05485894832259       1.38614880969073       1.15334522581040
H         0.12858045584877       1.58021978736228      -0.61213671294477
H         0.18448074954591      -0.41034302755347      -2.03724792182433
H         0.17867837058582      -2.01493527065461      -1.30081802299981
H         0.23319258769883      -0.66053075759826       2.13906696322348
H        -1.16747777132550      -1.30545902833675       1.28092628500304
H         2.14854127078007      -1.28896130697732      -0.30533917262264
H         1.95819354528904       0.32641408763666      -0.98373768125274
H        -2.24481846692211       0.49734420845939       0.99822713178693
H        -2.11911054283180       2.05786624430908       0.18458180630062
H        -2.00899826928898      -1.44131463925133      -2.28220621989595
H        -2.16934640806215      -1.69066732733268      -0.54352825198460
H        -3.41066870833433       0.33986271388221      -1.14979793073336
H        -2.00747412112114       0.99061676987431      -2.01343731404306
H         0.20153831505286      -3.20883500675305       0.42746655078546
H         1.61733653183403      -2.58632312042449       1.27597247021882
H         2.25038009750745       1.33688462025044       1.27129094471191
H         2.32118545099956      -0.27452640806482       2.00456263890912
H         0.50083460065182      -4.34032748967940       2.59341737624928
H        -1.01277905734763      -3.42129873453892       2.60013925173660
H         0.41018762519036      -2.79561041574118       3.45321904260645
H         4.59695796026046       0.60061322948957       1.64641435465046
H         4.27925554167336       0.79746789979859      -0.08581143341027
H         4.32422505415581      -0.82338008501838       0.62526260621430
P         2.70149994609875      -3.49068449826306      -2.08438919397944
F         2.21328571024939      -1.90733909735299      -2.40225064106018
F         2.20392304171906      -3.93153659868678      -3.57001667203285
F         4.19381838085254      -3.13270742059508      -2.62444150023311
F         3.13185175105638      -5.01219297366607      -1.71185751043587
F         3.14058646453344      -2.98703337391246      -0.54239940757699
F         1.15756752661066      -3.77639586308885      -1.48400202456120
