62
C18H36F3NO3S optimized with ADF in AMS.
N        -0.09614672124127       1.63571303271113      -0.28151261600277
C        -0.97917563736204       2.31950825470340      -1.30381940745472
C         0.45747801241514       2.70528501491946       0.66148167320399
C        -0.84928324658999       0.59656948191005       0.51775575590739
C         1.07051815764884       1.00285094297862      -1.03465858053101
C        -2.09262227112792       3.14393955999652      -0.67658079611112
C        -0.62003104107854       3.54055053118067       1.32346842749796
C        -1.53230281192165       4.19356224471419       0.28619677085123
C        -1.45320919764944      -0.54056855981353      -0.28875328539926
C         1.99702351826114       0.15820480711607      -0.18060281409723
C        -2.10315786551784      -1.56776006720685       0.64254542823085
C         3.33923758657332      -0.06303460447822      -0.88616774370247
C        -2.73439204988599      -2.73476469113797      -0.11522838518166
C         4.36930744734295      -0.68224542051952       0.05734178649298
C        -3.38441690639341      -3.76668065939542       0.80529054267388
C         5.76128095389011      -0.77335439852322      -0.56241831816843
C        -4.00863386707435      -4.93105418087334       0.04017827776712
C         6.79472469021883      -1.33636777289682       0.40994197914563
H        -0.29935101969221       2.96773826535580      -1.87936657558084
H        -1.36416584646370       1.54212259372678      -1.97877559282415
H         1.11756978705919       2.21327583907001       1.38620065448606
H         1.10335033303838       3.34699827853524       0.04609055190023
H        -0.12715534286348       0.21465939289656       1.25468447782272
H        -1.63264035875463       1.12807102500793       1.07232542127353
H         0.63412258251966       0.43216133511685      -1.86949031964715
H         1.62614596439845       1.85464221975887      -1.45335449999331
H        -2.64911961204045       3.62147935266491      -1.50070757217467
H        -2.81387342859096       2.48623984506143      -0.16109580262544
H        -1.20537486458864       2.94895420588809       2.04843154901083
H        -0.07032336596404       4.29801248577464       1.90579642417742
H        -2.35415184414509       4.74130376569550       0.77372656822398
H        -0.94530495898378       4.93444112066367      -0.28646853916359
H        -2.21855710242507      -0.16050811944862      -0.98722967943060
H        -0.68066908113050      -1.04572202271105      -0.89156220071322
H         1.53730149812755      -0.81371446735575       0.06947986775587
H         2.22794985200030       0.69489025979914       0.75257473687200
H        -2.87470665710416      -1.07172607755770       1.25983994109972
H        -1.34272341531568      -1.95600784887967       1.34466756868635
H         3.72372749670334       0.91654764015129      -1.21613460153435
H         3.21363416056187      -0.68706224032717      -1.79089752092227
H        -3.49340670266053      -2.34702555468091      -0.82078864834329
H        -1.96138775901344      -3.23193598107747      -0.73057213386872
H         4.42156979731579      -0.05107996262678       0.96217551142175
H         4.03561910226421      -1.68800647091126       0.37805831992389
H        -2.62584191865660      -4.15126825149478       1.51118443759761
H        -4.15661240441981      -3.26901247591338       1.41962490269854
H         5.72556099628554      -1.39394326699796      -1.47690585352788
H         6.06932887845981       0.23948967175441      -0.87808873652037
H        -4.46841839263403      -5.65993089495024       0.72365876632494
H        -3.25053551522425      -5.46164284255424      -0.55834976958068
H        -4.79140424468770      -4.57599270825775      -0.64990789403836
H         6.85598751110894      -0.70902610760425       1.31358795994155
H         6.52571723838929      -2.35764061261143       0.72706175641534
H         7.79651848382071      -1.37461696938385      -0.04416959468669
S         3.68652046645537       3.63467660126098       1.70082810969637
O         2.52248015216535       4.54143809914979       1.63233113069750
O         3.32584915676260       2.19781923995155       1.79052136334799
O         4.81351571898592       4.05841327100675       2.52774027961882
C         4.38108774430450       3.75924666526277      -0.04855456640845
F         4.83449681399155       5.00511837575745      -0.32675672976373
F         3.41582361641278       3.46894885099402      -1.00282396569501
F         5.40251969771975       2.88424474345457      -0.25627222427262
