46
C14H29NO2 optimized with DFTB in AMS.
N        -2.01395148646251      -0.25648052938957       0.29184048933524
C        -2.12669719070939      -1.75427264581330       0.24439743347592
C        -3.08056029363956       0.12698343321273       1.26793327289953
C        -0.66781106915855       0.15910841030898       0.79725215323227
C        -3.62130727353653      -2.04065811596165       0.30140092161433
C        -4.25194423235382      -0.80543549956199       0.96340593110215
C        -2.29548215510289       0.30001186566818      -1.07667072574590
C         0.47038389907063      -0.17095794896376      -0.16855837337175
C        -2.24574536208339       1.81501254699703      -1.16919060551936
C         1.81623566966371      -0.06916910166484       0.55490412447043
C         2.96932433015459      -0.36791681674539      -0.40823250392633
C         4.32266369458959      -0.29696998722974       0.30533713954292
C         5.47336494412984      -0.59041138133086      -0.65600388803628
H        -1.60752751933455      -2.15183508834336       1.12006405477107
H        -1.65388566432955      -2.11446273946924      -0.67321131762983
H        -3.32231800119532       1.18419752061030       1.16530797515084
H        -2.68874871484289      -0.05329131733063       2.27228966405732
H        -0.51651783667293      -0.36049817496876       1.74824939026204
H        -0.70745153038193       1.23288636016548       0.99981860100745
H        -3.81150769201541      -2.94803337350132       0.87648398183262
H        -4.00499657851620      -2.18094345939384      -0.71193314787894
H        -4.96358154744660      -0.32318870383669       0.29057713551884
H        -4.77602247498813      -1.05992488634417       1.88657201576436
H        -1.55815011336228      -0.14990035581242      -1.74631835352883
H        -3.27506093906652      -0.07206215996867      -1.37715726030293
H         0.34433320480316      -1.17702710032207      -0.57471432927730
H         0.46013896737235       0.52376075694868      -1.01152131430787
H        -2.47422496201197       2.08086944070980      -2.20117852600954
H        -2.98128545950686       2.29786555534434      -0.52582546887121
H        -1.25798441871650       2.20730062874204      -0.93090906095715
H         1.83961192174827      -0.78205504929542       1.38675611704629
H         1.93610393766667       0.93678172776106       0.97339095066252
H         2.95072709995560       0.35433747546767      -1.23109172032388
H         2.83262579549471      -1.36564754717244      -0.83722547532026
H         4.45526596247606       0.70061332753136       0.73855144545123
H         4.34034971035650      -1.02226021477275       1.12613880333110
H         5.48584816622280       0.13587898984377      -1.46980223923730
H         6.42566473495534      -0.53704190269477      -0.12778813067253
H         5.36821984088022      -1.58826894853425      -1.08367576248206
C        -1.61278674533071      -3.01762369787506      -4.36553919677647
C        -1.78678679063951      -2.24276813165614      -3.04068581983866
O        -0.73274526028217      -1.92555942332893      -2.43683723640162
O        -2.95303034488634      -2.00238345448651      -2.66842249607343
H        -0.77889466070215      -2.60237022530288      -4.92888289878028
H        -1.38948844150955      -4.05731732338290      -4.12693776305617
H        -2.52708007105534      -2.97241780415708      -4.95379933360261
