42
C10H22F2N2O4S2 optimized with DFTB in AMS.
N         0.18251473245092       1.27192959448600       0.10930615075918
C        -1.18470777042635       0.66063858324701       0.15866148937103
C        -0.03719691352974       2.66740116146037       0.62518036349203
C        -1.81971934651788       1.20083170556330       1.43389709966808
C        -1.16063288133182       2.56838493292644       1.65596233816130
C         0.67081610444114       1.28659661096986      -1.30783701103298
C         1.12123769729309       0.54507928719701       1.03483775389405
C         2.02304361339540       1.96952488351602      -1.49830297816013
C         1.51529228642603      -0.85880793244186       0.58449456392776
C         2.41182195976151       1.93394904400036      -2.97425027299368
C         2.32452004620960      -1.52594736035596       1.69777354671044
H        -1.73321162767940       1.00293693921089      -0.72236777727791
H        -1.10763026047109      -0.42560181205806       0.13134876291020
H         0.88942826566396       3.04769373976270       1.05066744380969
H        -0.33335619166803       3.29052490616507      -0.22174915433900
H        -2.90071560973244       1.28360825724347       1.31019950764946
H        -1.62448437538033       0.53413306568358       2.27619365431287
H        -0.76075667227140       2.64481698356196       2.66753490223229
H        -1.87315753673397       3.38159342654419       1.50725978144916
H         0.70943515695033       0.24858111641169      -1.64738290540501
H        -0.09034370975824       1.80819488272436      -1.89583539677104
H         2.01462019193058       1.16058867523248       1.14370138647209
H         0.62698643949243       0.50351533443202       2.00661278780398
H         1.96861321865324       3.00589668397182      -1.16007880865848
H         2.79359436240459       1.46639532689602      -0.91203895168593
H         2.12739391360393      -0.81205650699081      -0.32039053385434
H         0.63167581927735      -1.46623550504485       0.36524229444780
H         2.52714128938403       0.90496455090050      -3.31731458160469
H         1.65284863968210       2.42328680037481      -3.58613579138325
H         3.35843467411951       2.45493692727328      -3.11086899470531
H         3.21001191211737      -0.93446952300375       1.92684432822972
H         1.72494692260094      -1.61773432387645       2.60345886515796
H         2.63648283486239      -2.52022296078538       1.38014750329781
N         3.57724201271083       3.56730864886611       3.44176721504770
S         3.40881871872824       4.03233276733683       1.93676911820105
S         2.67961670373945       2.34035674647643       3.88787926454806
F         1.95059794502803       4.78185185696118       1.91579476646498
F         3.35381272898439       1.06201757145164       3.11050015228433
O         4.34281384235458       5.06666657186413       1.66178311140815
O         3.22580338835805       2.98996746522382       0.95771312818460
O         1.32579867775088       2.31717203458630       3.39514350069881
O         2.90749038652581       2.07574757883556       5.26473750947714
