43
C11H24F6NP optimized with ForceField in AMS.
N        -1.36510304494960       0.17626627388352      -0.06088330763699
C        -1.62580492473771      -1.01915239611596      -0.92068088794701
C        -2.47484940005714       0.18073393595040       0.94140009310173
C        -0.05297924842976       0.02697415841703       0.64824498758834
C        -3.00880481970406      -1.54768302198445      -0.59276304835438
C        -3.21233228088698      -1.14058451211800       0.83886987215319
C        -1.42038591839983       1.41669052434644      -0.90038995942100
C         1.18266299132319       0.03633866475602      -0.28420463338510
C        -1.13932808292942       2.72110677246311      -0.13252158698941
C         2.45126866829267      -0.35412287768286       0.48296427810565
C         3.67819697594169      -0.33077039398741      -0.43657776539888
C         4.94469423658809      -0.71210610183003       0.32364651321521
H        -1.55326516042065      -0.80211890778692      -2.01115674365997
H        -0.90859292624616      -1.84795520407647      -0.71949961803143
H        -2.12425384218942       0.33818065823831       1.98711934260356
H        -3.22179228220601       0.98315420718288       0.73959151496692
H         0.07691406972416       0.83377570672311       1.40377948717841
H        -0.05289274119566      -0.92456746504735       1.22966074708588
H        -3.76406367036962      -1.04815182153407      -1.23852275000735
H        -3.07662588233936      -2.65036792526009      -0.71895753881638
H        -2.74276813125305      -1.88878256991877       1.51581222178365
H        -4.29171766606862      -1.03789363203180       1.08501414267244
H        -2.42498913780739       1.50827922065220      -1.37418339273576
H        -0.70143573802343       1.35396555442021      -1.74689046052593
H         1.33014996010426       1.05301544063136      -0.70467101513409
H         1.04222415490168      -0.66946858685275      -1.12903354223359
H        -1.76524231072455       2.80494047270515       0.77888303935336
H        -0.07049486594026       2.79538319060970       0.15323466819609
H        -1.36877497636169       3.58647531753882      -0.78878432450228
H         2.32823670336064      -1.37650972856888       0.90351136558435
H         2.60637457063742       0.35785334760975       1.32318568702812
H         3.53248407116014      -1.04727949253841      -1.27396977638039
H         3.80807222870564       0.68744079948290      -0.86320727043713
H         5.81383791630108      -0.68651154719989      -0.36715752929558
H         5.12810975293384       0.00490655471098       1.15200560867513
H         4.85120733122006      -1.73778380574574       0.73926669388452
P        -6.53173456339096      -3.41429943676958      -2.70276659550115
F        -7.16267145456099      -2.31377668249479      -3.86196113302974
F        -7.99214734451602      -3.60177543206775      -1.81685738911345
F        -7.10079438587242      -4.70011528213846      -3.69068035945094
F        -5.69761434191253      -4.49861165534597      -1.66282642508487
F        -5.01601785270405      -3.29122963593840      -3.50326384060671
F        -6.22872304349721      -2.07770694088710      -1.66708785519702
