37
C9H20F6NP optimized with DFTB in AMS.
N         0.65358722674447      -0.33844612212643      -0.31939726287767
C        -0.12482346171454       0.43404685638452      -1.34050171142828
C        -0.27179278587300      -1.28118581954031       0.39017377855392
C        -1.30717814298315       1.18132735338955      -0.73814048077009
C        -1.50543383101808      -0.60658289184333       0.98302083955679
C         1.34139392510234       0.56076074226644       0.68530603664312
C         1.68305656629546      -1.15072597727339      -1.08268134274291
C        -2.26427229964450       0.19663197991206      -0.07071268432263
C         1.90897398678611       1.85267207282178       0.11969680546737
C         2.36553914610718      -2.24478449172959      -0.27838938144410
H        -0.49006680188750      -0.28916043922563      -2.07500526411650
H         0.56641881441219       1.11419623975995      -1.83931755854509
H         0.30094266265715      -1.76705209410828       1.18183767434296
H        -0.57829011277401      -2.03390007568109      -0.34164955226998
H        -1.81556030618608       1.70845079286279      -1.54934623104900
H        -0.97028024286043       1.92562484249641      -0.01302256715515
H        -1.22615072308961       0.04465141774139       1.81551042031095
H        -2.14515511616365      -1.39718696237201       1.38396918873812
H         0.62003239236965       0.78948982190127       1.47182432497764
H         2.14921965242128      -0.02938122368833       1.11905257101266
H         1.16084103162961      -1.59821385170384      -1.93226091651971
H         2.42359206964913      -0.44441980435099      -1.45890449260146
H        -3.08879420741883       0.73663152924913       0.40011656596368
H        -2.68308032490115      -0.47937688800748      -0.82310365403263
H         2.59317505476708       2.25715573800097       0.86489814902292
H         2.47571613835451       1.68038217254566      -0.79039085638385
H         1.13060114384362       2.59021630347050      -0.07118105237045
H         3.19384120541246      -2.60811384822639      -0.88617267246599
H         2.78364506223831      -1.86940730084444       0.65278164271861
H         1.69593536542607      -3.07821885021447      -0.06785424761751
P         5.14855642839079       0.27061068226810      -1.27945018039951
F         4.71283331349115      -1.24314403407299      -1.80650858418340
F         4.11044520926913       0.04745534980629       0.04191845972995
F         6.37066657177282      -0.35992371037453      -0.41069189006109
F         5.46834857379909       1.77775560385536      -0.73313758900726
F         6.09607141582273       0.48113836818370      -2.58074024409830
F         3.83185196185218       0.88301204996764      -2.13580923267611
