37
C11H23NO2 optimized with ADF in AMS.
C         2.57198765867405       0.32991545804478       1.96901314080139
C         1.81565427854410       1.26914616883415       1.01978589125180
H         1.61449513835714      -0.99063608154664      -0.24301126128972
H         0.07593945738671      -1.55403112676434       0.62609565626537
H         2.57597207278707      -1.85422321418061       1.68864629544968
H         1.29490138618988      -1.27638687392201       2.78579053846852
H         2.58843703813280       0.70199026496524       3.00463454579159
H         3.60523933185068       0.23908010313008       1.60662469913842
H         1.56010650150164       2.25281969633453       1.43881945962810
H         2.34113854665225       1.37173663559235       0.05016152519414
H        -1.39066267981988       0.18020318866665       1.54540276273019
C        -0.49368877002502       0.77645467020844       1.75353316771023
H        -0.06240409440190       0.47715081709661       2.71558954475749
H        -0.74793075304583       1.84436433741601       1.77429654825215
C         0.00515450841881       1.03656265167499      -0.66416717027187
H        -0.30610022593760       2.07875807218307      -0.48833714375047
H         0.90586717718549       1.03940148017299      -1.31791770741684
H        -1.71102380186200      -0.31886530638007      -0.47682750482413
H        -1.49347561941926      -2.24137004894161      -3.72978044546003
C        -0.66331223511647      -0.80602761849665      -2.31574770923391
H        -0.09495008257337      -0.26128039149958      -3.08970410727515
H         0.04783072666924      -1.52259861939822      -1.87396151748076
C        -1.83601095248472      -1.54975663815573      -2.94574079338829
H        -2.54878400723136      -0.84550551933915      -3.40524058996543
N         0.51411453302263       0.54915593547731       0.67845292269663
C         0.95779643258255      -0.90037343632537       0.64927312125398
C         1.85786689940501      -1.04164070444478       1.86773833154054
H        -2.38688436513838      -2.13863907717667      -2.19370597969368
C        -1.12846169593269       0.20106887449586      -1.25979941776479
H        -1.84504468981212       0.89702942503878      -1.73219706708899
C         4.62037312118194      -0.11567745758196      -2.84596980730157
C         3.49136213702793       0.05387698810800      -1.82336402895137
O         2.75478149500484       1.08726261361824      -1.93606030434430
O         3.39871707475115      -0.84650521492219      -0.93472655072462
H         4.62356482284783      -1.14678275707216      -3.22983266151254
H         4.52960509985610       0.59950864321736      -3.67438273388175
H         5.58722804297077       0.04054824237228      -2.34165065641000
