42
C12H21F3N2O3S optimized with DFTB in AMS.
N        -1.24566728100308       1.27682614107492      -0.34348166948514
N        -2.58816989185000      -0.40556906877880      -0.34473538869021
C         1.13081368012841       1.91360073924041      -0.12560845306414
C         1.69784072687338       0.54686225183442      -0.52003615659895
C        -0.21425035732059       2.20403019411315      -0.79455971531627
C         3.08932958055258       0.32948643501258       0.08179180953543
C         3.65010447594706      -1.04102886347890      -0.31087520550754
C        -1.51349760784330       0.11295384875814      -0.92984571885983
C        -2.17860453282806       1.51389649589277       0.63081258891018
C        -3.02971945947211       0.45512131289686       0.62674909782365
C        -3.30178330867755      -1.58453764868120      -0.82986181245354
C         5.03979282659869      -1.26498343632430       0.28245812398257
C        -4.53228657717714      -1.14352076126558      -1.61497471180642
H         1.82541617431284       2.70062918821837      -0.43330725498032
H         1.01491991253713       1.97140256869854       0.96151612029246
H         1.75553290642519       0.47936004893175      -1.61070460778754
H         1.02465602004622      -0.24298467846134      -0.16920869032227
H        -0.54892263695805       3.21456767055487      -0.54843589754309
H        -0.14705747696640       2.10411431795016      -1.88145198933166
H         3.03091016429348       0.40368657610167       1.17351730875018
H         3.76504043857155       1.11607924040593      -0.27084390228611
H         3.70404519497377      -1.11166167845356      -1.40218181948075
H         2.97224107758619      -1.82589432317792       0.04196299718591
H        -0.95292563588051      -0.34808976552707      -1.72485611778785
H        -2.16580067427504       2.40671599678823       1.23115299577534
H        -3.89612432772072       0.24522497687448       1.22898726632521
H        -2.61745920687228      -2.13479338039905      -1.47961670039436
H        -3.57476874381400      -2.20213728551120       0.03053278095705
H         5.00326649060305      -1.21801994367922       1.37192304040969
H         5.73496742564273      -0.50384994470867      -0.07455086335968
H         5.41720038661608      -2.24483302856559      -0.01058831707611
H        -5.22700618115584      -0.60364052845797      -0.97207422927487
H        -5.02887451756621      -2.02449359030130      -2.01837634890886
H        -4.23164124268450      -0.49752197772533      -2.43822068991188
S        -2.09085284114921       0.16188896607088      -4.06851314001946
O        -1.88596877776916      -1.16888546169036      -3.50650992084248
O        -2.32039269016577       1.17970462494823      -3.04339533401439
O        -2.95509499185726       0.22973083994903      -5.21302195634603
C        -0.39235495926210       0.60698635639882      -4.66348322561756
F         0.08554831500129      -0.24402977890167      -5.55650990538429
F         0.43322370309950       0.58444882258104      -3.59391487659998
F        -0.34306827864025       1.83086388939378      -5.17182401969610
