49
C13H21F6N3O4S2 optimized with ADF in AMS.
N        -1.74477049247982      -0.40664170743665      -0.44716085079597
N        -3.68919107328492      -1.12148447207808       0.19924819507439
C         0.73905398733410      -0.24660453478879      -0.39049978156134
C         0.94691672608983      -1.55527218892642       0.36276684346222
C        -0.51694212211789      -0.25780584466505      -1.25090159476549
C         2.20063565349776      -1.55364528051995       1.23310084362451
C         2.37452464722241      -2.86513683988433       1.99607644300191
C        -2.72109776489830      -1.28633918726664      -0.70806074990083
C        -2.09628327590779       0.33219347174111       0.66625066101482
C        -3.31928683739086      -0.12033469264443       1.07095189735194
C        -4.96331602770795      -1.85253121386199       0.19359871957988
C         3.63474401025386      -2.89519524572464       2.85460921905622
C        -6.03061121663584      -1.06651843379174      -0.55145302053130
H         1.58755493908996      -0.05574244259595      -1.07173160976537
H         0.71683443592116       0.61012191514943       0.30780356533003
H         1.00018043274483      -2.38646355306535      -0.36040310232486
H         0.06793856792092      -1.76446030613315       0.99643582567940
H        -0.61989418374711       0.66811786156937      -1.83953868159363
H        -0.50138097227999      -1.11993310184461      -1.93374143338285
H         2.15236865134243      -0.71366870197653       1.95364659509219
H         3.09102540875942      -1.37133988396313       0.60058366282853
H         2.38280180086914      -3.70353114470144       1.27758053680008
H         1.48887548964924      -3.02633147748346       2.63192774842921
H        -2.67041392211749      -2.06288070419587      -1.46546083899940
H        -1.44813518934918       1.09027638543407       1.08516103708413
H        -3.93906396589802       0.16277385353293       1.91256048558183
H        -4.75323382803230      -2.83084600769834      -0.26117820335273
H        -5.22619658330446      -2.05186239673453       1.24091611520410
H         3.62681424807918      -2.08000683167972       3.59745124808633
H         4.54096106520430      -2.77768964102178       2.23783621339694
H         3.71961737845885      -3.84681080672813       3.40043818032575
H        -6.20634741745965      -0.08635789631668      -0.08280481827718
H        -6.97584927787637      -1.62735569995791      -0.54090334870789
H        -5.73830920639437      -0.90253796710712      -1.59976146470378
N        -2.56711796846702      -4.06012546008235       0.33097907054283
S        -2.92836502385496      -4.68461550313694       1.78600926377335
S        -1.30785958609882      -4.53064516572087      -0.55493119658431
C        -1.77398030465591      -3.80023105883087       3.00456846510434
C        -1.79625260086813      -6.16252686731989      -1.39623867027017
O        -4.23501046929588      -4.13735200170843       2.14137466503521
O        -2.63638013210516      -6.09834816021167       1.95819933357203
O        -0.07875007865700      -4.83724259251709       0.16423878400289
O        -1.25376541306163      -3.59764452252357      -1.69348023995778
F        -2.29312541106625      -3.89979070948242       4.25189687989911
F        -1.67323171230093      -2.47137275175584       2.70025639497951
F        -0.54018464541754      -4.33306960982278       3.00995344684099
F        -1.00397863135993      -6.33218861993904      -2.48390258484024
F        -3.08773443261599      -6.12143410742491      -1.80863677978907
F        -1.63069017842992      -7.21271668005780      -0.57493932345049
