54
C14H26F6N2O4S2 optimized with ADF in AMS.
N        -1.12661933008544      -0.99237265446632       0.82452566319541
C        -1.47865499460802       0.29231435574816       1.56043956648991
C        -1.68723120595647      -2.18081570979760       1.59409765052695
C         0.38710657801464      -1.18658951559533       0.78334729311120
C        -2.96379982650950       0.41341799453446       1.86411744008323
C        -3.17674557665773      -2.07722910680826       1.86019962730669
C        -3.48238946603837      -0.79733335688562       2.63627235646473
C        -1.65883334305479      -0.95866635347061      -0.56888560540727
C         1.20896127843092      -0.00935824854687       0.30123694304105
C         2.69178859356660      -0.38595705527670       0.40229954012001
C         3.61164608733745       0.77285056454854       0.03127613808872
C         5.08973903946093       0.41348940245546       0.16719536752973
C         6.01286138763475       1.57191732561596      -0.19958017290374
H        -1.12496265274659       1.12138655021425       0.93338694248198
H        -0.88718698936030       0.28035977878045       2.48564712467190
H        -1.14546622918659      -2.18390848741784       2.54984354903015
H        -1.41027817564781      -3.08020840615918       1.02424179308259
H         0.69214389463888      -1.44162366863202       1.80653701254341
H         0.54927154834125      -2.07748525710394       0.15496327835027
H        -3.08382374577469       1.33466958932685       2.45883388900005
H        -3.54903748716577       0.56370884012349       0.93941128587639
H        -3.76280998871961      -2.12492720062711       0.92539633537185
H        -3.45449484155699      -2.96724537333685       2.44858394727967
H        -2.97511687576830      -0.84404722874174       3.61590289037564
H        -4.56417515815333      -0.70245698489499       2.82032107182451
H        -1.18793045408009      -0.12473294644019      -1.10246604986517
H        -1.41111952224780      -1.90762327147386      -1.06114069672475
H        -2.74403401577913      -0.82027166610755      -0.55067778590569
H         0.96444692577362       0.27426216546787      -0.73827080479585
H         1.03880086399997       0.85983854563760       0.95524818602436
H         2.90024747452457      -0.70624621666640       1.43866039140914
H         2.90359679097735      -1.25249979707793      -0.25173413692379
H         3.38605486860164       1.63543355784642       0.68620783127954
H         3.40603459402758       1.10014934975108      -1.00668443491103
H         5.31234256913945      -0.45929259981983      -0.47401316813889
H         5.28462887056631       0.09205044064379       1.20597376413397
H         5.85509751422683       1.88778923234381      -1.24388589199605
H         5.82262797915934       2.44423557240202       0.44681303537174
H         7.07148658517709       1.29347059072953      -0.08623700345513
N         1.99669560173122      -1.63260040764122       3.83517590846952
S         0.90929383385208      -0.60108420764108       4.40545362700556
S         2.25288879831691      -3.09593506719511       4.48829380364030
C         1.42644363857779      -0.07039682102198       6.16512244560249
C         1.03645773464838      -4.23073410791670       3.58240592145093
O         1.05714704910906       0.62213076501883       3.60876788854109
O        -0.45179815707084      -1.13513482766008       4.56517568405655
O         1.87751849973467      -3.21621009128438       5.88981744036926
O         3.53769907948552      -3.56689728693353       3.99880496033071
F         1.00021133593339       1.20420047557575       6.35365849854760
F         2.76824505998169      -0.10286637815073       6.29540805573118
F         0.86334297093004      -0.84801201830272       7.10358062488500
F         1.31755876620612      -5.51841508362395       3.87495407670045
F         1.13239564184883      -4.07325363395164       2.22755222296257
F        -0.25343557198675      -3.98961395479447       3.93124253746935
