46
C12H26F6NP optimized with DFTB in AMS.
N         0.07558815299451       0.37238564306644       0.06093881095145
C        -0.11981621185652      -0.09587604111358      -1.35345052252467
C        -1.21865060996235       0.93349502507928       0.56863992772490
C         0.53306318649263      -0.74055864763615       0.96654404507531
C         1.09605579714939       1.48299637071001      -0.00175634767346
C        -1.24677746507906      -1.10793351354741      -1.49560505305275
C        -2.38514397254221      -0.04338330005373       0.45778639646741
C        -2.56241382543520      -0.52776092010470      -0.98022358760787
C         1.88663053913212      -1.34914856013426       0.60725866458895
C         1.52448594133231       2.06726617300822       1.34012853411593
C         2.27705016576384      -2.39272205980157       1.65926499572127
C         2.56074621102291       3.16235368455626       1.08008369788702
C         3.62250249076515      -3.02339784485331       1.30542669959438
H         0.82531397563268      -0.51328760712731      -1.69926145779517
H        -0.34323624830418       0.79394841561279      -1.94783986110448
H        -1.42914211931595       1.82896644643530      -0.02270029165681
H        -1.06998425485762       1.22580035139832       1.60991123800405
H        -0.23421826777703      -1.51667038430411       0.94356603236560
H         0.56085324759270      -0.32784642004636       1.97820933179957
H         0.66199846536641       2.26776327716888      -0.62634840822181
H         1.96318806488381       1.08283253219632      -0.52241366470791
H        -1.00758327841528      -2.03432829695502      -0.96700290486815
H        -1.33742574894632      -1.34752600271993      -2.55799669238794
H        -3.28434745142540       0.48416194878437       0.78710060415685
H        -2.23828758523411      -0.89503582686613       1.12733407949110
H        -2.86689915773942       0.31105064411262      -1.61439869807653
H        -3.34738261544542      -1.28650996387753      -1.01897787078520
H         2.65719094049083      -0.57876042488152       0.56960066170215
H         1.83968960343947      -1.82635701580741      -0.37318260151084
H         0.66880451923793       2.48988073142643       1.87627989331982
H         1.97638825536024       1.29707979470257       1.96964964481305
H         1.50648301096093      -3.16997445437258       1.71458176919749
H         2.34167330577075      -1.91360659186423       2.64251702469970
H         2.89353573572846       3.58455029597882       2.02756103961652
H         3.42091265198956       2.74657869901657       0.55684566752045
H         2.13156195363144       3.95853258460900       0.47146361444483
H         4.39083731274928      -2.25518780627279       1.21980271996992
H         3.55515853866799      -3.55215767385738       0.35441540381212
H         3.91771235148526      -3.73137278090724       2.07967751971139
P         4.07922041777465       0.61053904079080      -2.18340048638575
F         4.06583599003098       0.75263778793904      -0.50768065284412
F         5.12330059030080      -0.63446296700674      -2.05921264879032
F         2.79021914728624      -0.47983008153661      -2.03280905310099
F         4.00824429870803       0.45516149957603      -3.80159944138445
F         2.94993992858851       1.83825182204245      -2.24675135601668
F         5.28611900150623       1.69354104783708      -2.27229100355530
