22
C6H8F6NP optimized with ForceField in AMS.
N        -0.70945579265979       0.00036742733615       0.02154959360333
C        -0.03145282501393       1.18854481436558       0.01059827497439
C        -0.02970192684489      -1.18697716560918       0.01093602640413
C        -2.17400483491398       0.00003756380168      -0.00407913539219
C         1.36534826359776       1.20734920611798       0.00076186442364
C         1.36771426409987      -1.20345516335098       0.00117902924866
C         2.06546883766309       0.00314621219443      -0.00593644114502
H        -0.56671375105671       2.13058054243670       0.00534462237944
H        -0.56419538806464      -2.12965481190806       0.00590936068648
H        -2.57955025705614      -0.89616502949873       0.51388922197597
H        -2.57964776025400       0.89674760155510       0.51311390101353
H        -2.52682438882352      -0.00012069583183      -1.05705063607482
H         1.90032146538091       2.14796856157823      -0.00657095963092
H         1.90376801650384      -2.14371045972131      -0.00577604780274
H         3.14640540270914       0.00787299862245      -0.02221957378126
P         6.70761377181031      -1.80432307448135       0.91323936338672
F         6.98597479987703      -0.10943359708326       0.94924249529633
F         8.39863506323254      -2.09611532645237       0.98752230109896
F         6.62652542196504      -1.82699861479247       2.62900672856992
F         6.41735377839285      -3.49699489150093       0.87523327670055
F         5.01492581478778      -1.52798145352988       0.84888927979805
F         6.77731624436745      -1.77730598764795      -0.80306618893314
