26
C6H11F6N2P optimized with ADF in AMS.
N        -0.93044700455163       0.04665813242911      -0.27023095972163
N         0.73057344392245       0.01237480588767       1.12252583380320
C        -2.18399675717087      -0.32606770587836      -0.94705533038964
C        -0.29829719810364      -0.69689539980590       0.64414770582521
C        -0.30795380998578       1.27438469460453      -0.35676210719217
C         0.73551947770899       1.25412999512803       0.52156282994905
C        -3.34105168149027       0.53616890423824      -0.47188577377005
C         1.56990153531519      -0.39270697839559       2.24500914267151
H        -2.00474163085313      -0.23827142452914      -2.03072697748118
H        -2.36397021016254      -1.38156557497362      -0.70399783133108
H        -0.63434537915107      -1.65525515946573       1.02390217922631
H        -0.65465964053734       2.05054861511635      -1.02714038379035
H         1.46873205576398       2.01081462736257       0.77145544513031
H        -3.45988432047369       0.44033427643622       0.61648209409679
H        -4.26336716317720       0.18910638445708      -0.96091854817523
H        -3.19111567407026       1.59478403567636      -0.73326687632332
H         1.58979632886489      -1.48616180750248       2.29650994184701
H         2.58266531629181      -0.00514703463716       2.08405540874038
H         1.12862949956255      -0.00249387119827       3.17129252703461
P        -2.45470963254565      -0.98473709671515       3.36319168031356
F        -2.15284947342293      -0.29322394755495       4.81332282647759
F        -3.93929329483450      -0.29600700649720       3.26935643462499
F        -1.80100033211676       0.36170819136449       2.59507153475057
F        -2.69776842286623      -1.68054428593278       1.84181584716444
F        -0.91723282264175      -1.66952989825460       3.36092410983655
F        -3.05929211927461      -2.32827391875972       4.06629454998257
