41
C11H24BF4N optimized with ADF in AMS.
N        -0.89577132819134       0.03712125223925       0.03367250488623
C        -1.29440937220097      -0.65386906931254      -1.26313583068960
C        -2.20578995500115       0.05309322221127       0.78755752647267
C         0.15185571389231      -0.76453344298337       0.77564924962053
C        -2.66192760046253      -0.06929398997723      -1.60811232051101
C        -3.25548829590537       0.42319673391759      -0.26058104823070
C        -0.41385582238934       1.44713914619678      -0.27438884778496
C         1.47211422002601      -0.93617352969318       0.02140418706183
C        -0.23758039561219       2.33498671397749       0.93940230235488
C         2.60168429519088      -0.00668194409576       0.46858329983285
C         3.85356945467612      -0.19092750046877      -0.38709472672882
C         5.00445273773220       0.70067555782796       0.06901550594950
H        -0.52858552191846      -0.48930772551269      -2.03294757782939
H        -1.35584289804354      -1.72502247823712      -1.01498747250082
H        -2.35519747282990      -0.97198321305577       1.15832257300372
H        -2.13695961672281       0.73330176967856       1.64480522137400
H         0.29917107006113      -0.27060693021708       1.74854919072360
H        -0.32810631999632      -1.73649357611140       0.96557002263676
H        -2.54598260415119       0.75172826625455      -2.32935287261411
H        -3.28757437087209      -0.83836128737702      -2.08191179818067
H        -4.21399454186337      -0.05855993254427      -0.01991855469703
H        -3.43127433861963       1.50895712872386      -0.27848537592714
H        -1.13225772449472       1.87654381024105      -0.98301444735891
H         0.52177458723651       1.33870935036427      -0.83891705185040
H         1.32089570815470      -0.82326630689632      -1.06509661680676
H         1.79660647363704      -1.98106500256250       0.16761440599571
H        -1.18878882274983       2.61989017549818       1.41251682657223
H         0.42408212529957       1.89755802532368       1.70051419148958
H         0.24356700926319       3.26132328087884       0.59040664520987
H         2.83864630585547      -0.19653461926965       1.53374725581680
H         2.28748624191686       1.04707978970801       0.38948697579449
H         4.16518746829868      -1.25146701498153      -0.35923879926419
H         3.59142199933128       0.04477905135570      -1.43202510792423
H         5.88852903647209       0.56571879758610      -0.57222653938654
H         4.71533035809573       1.76274585955871       0.01873090479590
H         5.29929848417007       0.47572226367439       1.10749813315542
B         1.09310521724762       1.05946218259947      -3.41736806358649
F         1.84658588108220       1.62646124909686      -2.33003601614281
F         1.09367691007204      -0.37300675927259      -3.23804062377096
F         1.64441960137438       1.40833781315155      -4.64512242791240
F        -0.26474485966134       1.50899931970470      -3.30312157074865
