52
C16H34ClN optimized with ADF in AMS.
N         0.29389870986824       1.65209356165295      -0.54528126771566
C        -0.33897727271086       2.82148113804622      -1.26376211647106
C         1.35812402951018       2.31445273353563       0.31468124526200
C        -0.72902566821228       0.98582873464182       0.36754371220060
C         0.88196042615931       0.68216935248685      -1.54899903251906
C        -0.37082016610389       3.96155695191712      -0.24098228295687
C         0.68718074851114       3.58243423702523       0.82806859714946
C        -1.73617094846730       0.10724473408053      -0.34654698447634
C         1.55634943717114      -0.54467467970167      -0.94573941797855
C        -2.78206153318988      -0.38630651439648       0.65559389637696
C         3.06273758475081      -0.39766812214107      -0.72889073036757
C        -3.81004451600598      -1.31601000394519       0.01769349921059
C         3.65275627566988      -1.63528133568279      -0.06035825088503
C        -4.85507589156818      -1.81854376741857       1.01100115071058
C         5.14633619260843      -1.49808987813188       0.22053002225996
C        -5.87905188470605      -2.74867877428338       0.36720381325532
C         5.72670795041755      -2.73450827516881       0.90149587446563
H         0.31659287645975       3.06077835020926      -2.11389892423448
H        -1.32304634428975       2.52033263308255      -1.64491061949221
H         1.65812258681958       1.59296903282280       1.11139779169682
H         2.19437865137943       2.54370190190446      -0.36270345673952
H        -0.14162192390961       0.42454271134009       1.13178344920829
H        -1.24081154554394       1.80920793063230       0.88674987110036
H         0.04700116247137       0.40675658120787      -2.20952136278544
H         1.59679715197921       1.27703302318332      -2.14123442398921
H        -0.13319799409281       4.91234810857474      -0.73882936469570
H        -1.36930643790442       4.06763471787292       0.20723326276066
H         0.21563498566956       3.39244038901376       1.80347946587648
H         1.43335271567464       4.37555806492998       0.97288098668172
H        -2.24722295087217       0.64386973692673      -1.16782920961664
H        -1.23388167479926      -0.76989509470391      -0.78668919629869
H         1.11077307467368      -0.79535647738704       0.03375238320781
H         1.36412803536809      -1.39392003872469      -1.62532770469683
H        -2.26694628250472      -0.90785364369992       1.48154444459433
H        -3.30049041762333       0.48061612541404       1.10505354844900
H         3.25454552396446       0.46009415194612      -0.06421843492640
H         3.56827776877728      -0.19652060821470      -1.69385016768664
H        -4.31919877406689      -0.79027191414260      -0.81282678811444
H        -3.29018665249603      -2.18266592232655      -0.43211204563663
H         3.11561656070747      -1.77996548534394       0.89534550196520
H         3.47193021525478      -2.52845754641122      -0.68943232149483
H        -5.37226321057261      -0.95277834760357       1.46348887499998
H        -4.34398743304447      -2.34332127535919       1.83814884446413
H         5.69066957265364      -1.30017114778417      -0.72237609054654
H         5.30143346506761      -0.61688176158309       0.86954444921890
H        -6.42157703668406      -2.23607253989136      -0.44361006884081
H        -6.61995863585228      -3.09932922907550       1.10207248911257
H        -5.38631504772410      -3.63411938448253      -0.06569888597119
H         5.59320370753038      -3.62926061773774       0.27165761051486
H         6.80311472950263      -2.61678736120777       1.10145303968888
H         5.21810227384132      -2.91887848590019       1.86093485217262
Cl        1.50583884648331      -0.17037685059780       2.49147584743263
