36
C8H20F6NP optimized with ADF in AMS.
N         0.40094378621122       0.01194595179659       0.02283880952335
C        -0.41916761110966      -0.40930322792091       1.22402978933129
C        -0.47841811584248       0.34354818419786      -1.16539302729837
C         1.33885853625343      -1.13609269693789      -0.36535726552923
C         1.21656874223384       1.25527498880978       0.39357809373468
C        -1.42982073286308      -1.51653479098276       0.99059367404770
C        -1.60763316733217       1.32404045668309      -0.91024833071013
C         2.06556945170388      -0.97850057161141      -1.68373426673091
C         1.97560648963355       1.18350679457138       1.70073831457765
H         0.31165402178632      -0.71687988236875       1.98343286862658
H        -0.91560386653007       0.50038395171174       1.59065238630753
H         0.20221398994315       0.73904641217785      -1.93064330083426
H        -0.87181752706471      -0.61494758391057      -1.53387242563465
H         2.06904548480954      -1.21188184967668       0.44948621950773
H         0.71109104163913      -2.03639147272010      -0.37839143674897
H         1.92342664295514       1.40575909354632      -0.43121230159723
H         0.49634419255377       2.08370113853897       0.41306808322162
H        -1.94808849308812      -1.69186987082924       1.94568193371708
H        -2.19429411886545      -1.25749107625753       0.24613884260393
H        -0.96273865518498      -2.46669117412624       0.70160754135490
H        -2.14977500414861       1.45144808399894      -1.85965304791000
H        -2.33168488482026       0.96774675181380      -0.16532024481805
H        -1.25110932746073       2.31787909213444      -0.61008426821343
H         2.82475340625373      -1.77440577031326      -1.71910013806587
H         1.40666167874625      -1.09234591543790      -2.55572162551205
H         2.64076585857102      -0.04603019681854      -1.74531716265507
H         2.64672741510685       2.05523138976212       1.72024068022501
H         1.32285172743485       1.22965868615708       2.58331900798105
H         2.64921393149726       0.31894674711645       1.75491552743556
P         5.34619061667094       0.37830164088196      -0.06111872421781
F         6.40080269101506       1.50491659035316      -0.60487998982712
F         5.21934703823162       1.15125121858677       1.39638453359935
F         4.06127865722365       1.32392004351040      -0.62996765641078
F         4.21713001127427      -0.75678537975751       0.48818316105321
F         5.36805068753488      -0.40145127599637      -1.51770768888766
F         6.55637449282699      -0.56634262738304       0.50530747755336
