31
C9H20ClN optimized with ForceField in AMS.
N         0.27390387915041      -0.10711045883544      -0.19399245363370
C        -0.56291541363229       0.72151849882050      -1.12142671111120
C        -0.51672606158559      -1.31174938794709       0.22177486951892
C        -1.92704240141082       1.12888322415283      -0.54047471143610
C        -1.89976943962035      -0.98128005875426       0.81804849074066
C         0.69060193124359       0.66683400937679       1.02712362328230
C         1.46546296550364      -0.56720290300321      -0.98686437988254
C        -2.71909663187913      -0.10686632981033      -0.12612574671945
C         1.58382574459214       1.89391351066597       0.76829024454805
C         2.51485055576494      -1.38260244743970      -0.20824444819973
H        -0.76921044929394       0.15356352385743      -2.05899649964186
H        -0.02549687043956       1.63636726407102      -1.44778354169320
H         0.03126181524699      -1.90301251762430       0.98708623644256
H        -0.68288808145163      -1.98851574904048      -0.64822481784788
H        -2.50112177210546       1.67641612701093      -1.31885028908470
H        -1.80956718771227       1.82304514364854       0.31691146981973
H        -1.79782382849654      -0.48691425970464       1.80624643547873
H        -2.45164902674467      -1.92965683164341       0.99151259550697
H        -0.18875684510700       1.03363262229934       1.59040814929214
H         1.22106312008206       0.00407560116625       1.74465200677980
H         1.13558248523529      -1.19925486855156      -1.84334791580637
H         1.98610743705986       0.29711999099151      -1.45513833605502
H        -3.65932656448046       0.20526810832112       0.37745620764026
H        -2.99205249975538      -0.69400968096594      -1.03073632980039
H         1.84942125901079       2.35339291575051       1.74397725467257
H         2.53487733308536       1.62111006808855       0.27096884268815
H         1.05359152773829       2.66828345169457       0.17962002821229
H         3.31839706078257      -1.69296646190429      -0.90939842980370
H         2.99547534591355      -0.78122338653343       0.58877446966585
H         2.08222878602619      -2.30684606296325       0.22247417218223
Cl       -3.36154826162059      -4.56109139319454       2.38481380734459
