41
C13H21F3N2O2 optimized with ADF in AMS.
N        -0.48758682036804      -1.11528760563628      -0.91074660439344
N         1.53718373336882      -1.47744309927662      -0.21412567092752
C        -1.90286088388460      -0.71860348145696      -0.92386710006015
C         2.73755106855389      -1.46068288594077       0.62909641720785
C        -2.07505988787095       0.76496737731356      -1.22652129331539
C         3.40626262381035      -0.08800394056866       0.61039795134901
C         0.30426727489936      -1.12334493218143       0.17038023043123
C         0.26903880378964      -1.41552701730959      -2.01989855342387
C         1.53775243363490      -1.65477114946768      -1.58004017236055
C        -1.51973894991843       1.67654000136541      -0.13469623986025
C         2.66178670324778       0.96564485833104       1.42764676234301
C        -1.72129559634245       3.15091390914790      -0.47662663127161
C         3.25349756092472       2.35655879357563       1.21679685466698
H        -2.39505922621111      -1.34816885930205      -1.67979683015824
H        -2.31745848429568      -0.98827258074121       0.06107069459400
H         2.43102466195875      -1.75152833064555       1.64683450962897
H         3.39974360309339      -2.24915185371575       0.24133302410777
H        -3.15672688860261       0.94532580420329      -1.36457571475981
H        -1.56434574058884       0.98562263595048      -2.18145995047348
H         3.46895226341519       0.25816235261506      -0.43544179783524
H         4.43560887151105      -0.20839791954289       0.99221737961122
H        -0.00601829234897      -0.90342920237838       1.18268404693789
H        -0.13857889166806      -1.36712670964272      -3.01988556363855
H         2.44340832953548      -1.89027058135247      -2.12276824195726
H        -2.00206169346135       1.44068480803857       0.83467017869301
H        -0.43695591053484       1.49123018718787      -0.04073638076569
H         1.60995363172126       0.99648268946877       1.10060808954662
H         2.68045295916216       0.68366780206466       2.49817351117761
H        -2.79033159002416       3.39049957060091      -0.59555412600512
H        -1.20865460789726       3.39838294983844      -1.41822481526836
H        -1.31065635966107       3.80140817725273       0.31036429048868
H         3.11097310647221       2.65234743834584       0.16657540154238
H         4.33044595046531       2.37247032691963       1.45099627415388
H         2.75658861135729       3.10241444378646       1.85515827271143
C         1.08298444983023       1.67009525802553      -2.56645173421895
O         0.27889949697722       1.12919996971568      -3.36365103461376
O         1.46702103239794       1.32231918076621      -1.42223680411227
C         1.66639346139238       3.03211029213059      -3.08982441126748
F         0.68109614874280       3.99106790396325      -3.14363480488382
F         2.18559229989327       2.92718549995073      -4.35128047054512
F         2.65956142932304       3.54413349850075      -2.29946629087560
