31
C7H13F2N3O4S2 optimized with ForceField in AMS.
N         1.09229310159203       0.37326510348069      -0.40675199394371
N        -1.13045024946631       0.37004676867111      -0.38002699896992
C        -0.02389537638637      -0.22382923257223      -0.86753585380872
C         2.47132997562567      -0.01779612234562      -0.68489214491501
C        -2.51559979080319      -0.01865997368105      -0.63158130214619
C         0.67921804908959       1.38021377641119       0.38931266477048
C        -0.70079361265977       1.37870734178094       0.40523506378366
C         3.08191633219259      -0.70219986189709       0.53154833380578
C        -3.11278212816673      -0.68327231378945       0.60377341309542
H        -0.03027364797283      -1.08616087468539      -1.52304590338854
H         2.50052652054023      -0.72125703713804      -1.54534097102496
H         3.06805523673185       0.88063242076438      -0.95298138396783
H        -3.11094890449369       0.87937287157039      -0.90354933423290
H        -2.56130556741399      -0.73340831422642      -1.48214573541002
H         1.33083678673474       2.06137625691170       0.92145673688837
H        -1.34127563798656       2.05923595439957       0.95144521994562
H         3.13034394506598       0.00483871600970       1.38646914614110
H         4.10836038979108      -1.04562621924214       0.28727381699998
H         2.47053889514385      -1.58324879960889       0.82148274993975
H        -2.52344931522313      -1.58625349319496       0.87121524607865
H        -4.15971674167796      -0.98776767338043       0.39478278268159
H        -3.10863216784189       0.02153015802012       1.46182172553699
N         6.11631218174311      -2.78694656561947       1.85994721526134
S         6.06006343857620      -1.40240798056818       2.72990458635515
S         7.53708111933230      -3.39492646789765       1.32348835186690
F         6.29563817120654      -0.09909374798949       1.70539087439886
F         8.40514739379888      -3.99563320836174       2.62309394273796
O         4.71821442825617      -1.28084680357457       3.39380810661845
O         7.14199986147376      -1.40402364117016       3.77269890193338
O         8.34004541941276      -2.31173791635949       0.65991755598578
O         7.27297777218509      -4.50178651851733       0.34298902798260
