29
C9H12F3NO3S optimized with ADF in AMS.
N        -0.50761636877050       0.36283492266437      -0.52712009874358
C         0.86279788707516       0.12515442277418      -1.05132952435112
C         1.92345784372768       0.29405676836335       0.03360533132141
C         3.29403557965289       0.51830486872468      -0.59842297952214
C        -1.25447052565182       1.35375482237678      -1.05232797555114
C        -0.95155874481653      -0.36808020759468       0.52418281186210
C        -2.50329236637316       1.64583260963816      -0.52518343944888
C        -2.18757957283384      -0.11422360259891       1.07770835417282
C        -2.97693274368705       0.90954235705900       0.54979661963984
H         0.87195083547762      -0.88324003259083      -1.49775985457218
H         1.01694031671759       0.87391675611104      -1.83715492380058
H         1.94428296884709      -0.59069865966861       0.69333288167139
H         1.65287312212502       1.17295735213834       0.63755902053297
H         3.57954803459216      -0.30931317317115      -1.26723289118471
H         4.06488730122884       0.60594739459785       0.18096133309431
H         3.28635418736323       1.45608796938003      -1.17358601579365
H        -0.80125030326286       1.93235000208990      -1.85155060630013
H        -0.27728617617525      -1.13558747372997       0.89567798365590
H        -3.05453363709655       2.48382709423822      -0.94586269026693
H        -2.52283548633518      -0.70906196003626       1.92622375781695
H        -3.94807751283541       1.13936078222267       0.98922221507767
S         0.16569299058200       4.20580738203180      -0.20403592957672
O         0.88404099335882       3.07837575387207      -0.85756721623706
O        -1.29283828311732       4.18968728090742      -0.43981888436055
O         0.83081518462756       5.50236327873399      -0.26917821596062
C         0.29933688230380       3.73303660582944       1.61300268858635
F         1.59708180708549       3.56305275203930       1.98855737532017
F        -0.34533836324246       2.54016840248118       1.86700234252403
F        -0.25236815536699       4.66737868511664       2.42192668689408
