43
C13H24F3NO2 optimized with DFTB in AMS.
N         0.30008835942704       0.16208544919329      -0.00499049789769
C        -0.55617540460921       0.99007021990041      -0.91252696550568
C        -0.46634191958321      -1.05550539250484       0.41401333230073
C         1.50463405843013      -0.26659718653782      -0.81958316126156
C         0.74157654935544       0.93229740795593       1.21810553207674
C        -1.88163581376259       1.38315917351654      -0.27405488580348
C        -1.83269831379161      -0.74645267003513       1.01980634721616
C        -2.67382856193158       0.13110268409526       0.09557562520261
C         2.36076111429407      -1.36943223751279      -0.20287567864779
C         1.20795037338435       2.35364579859503       0.94997419732600
C         3.57769417813202      -1.61190315704942      -1.10801919902320
C         4.54202064725204      -2.60444597099136      -0.46326647245295
H        -0.74771296348480       0.39077702034160      -1.80716170461474
H         0.02169913853601       1.86878145789031      -1.20119849834191
H         0.14466850154573      -1.59100958472378       1.14218070269513
H        -0.58741857693823      -1.67744640203958      -0.47736891630259
H         2.11528376412611       0.62885214210039      -0.96409348709516
H         1.12384919306219      -0.59988555641994      -1.78913135295175
H        -0.09332001116983       0.94353464623441       1.92038144822488
H         1.56461126628302       0.36751895549969       1.65931452808395
H        -2.43872625406574       1.97828432033536      -1.00198705374818
H        -1.71860035741113       2.00222682459185       0.61117260746017
H        -1.72025147642389      -0.25973242533448       1.99198331256396
H        -2.33592024689498      -1.70236670695054       1.18705016173583
H        -3.60311623762269       0.41015382660817       0.59717564436100
H        -2.92896043869638      -0.42407595315195      -0.81290165301076
H         1.79410925756781      -2.30112175288968      -0.11007563112067
H         2.70893043014232      -1.07500509499639       0.78943298782518
H         1.73570053405765       2.68275370303253       1.84450438863479
H         1.91396431606880       2.39747890199176       0.12323780373283
H         0.37498295314505       3.03074144920814       0.76361561747180
H         4.09463024793775      -0.66439050320783      -1.28147720996897
H         3.23996066606889      -1.99481276132296      -2.07755865371946
H         4.06983581328938      -3.58077274489370      -0.34294795519015
H         4.85755737613085      -2.24118692441743       0.51492051845120
H         5.42592795920767      -2.71878615770562      -1.09034155631275
C         4.29847330599791       1.16564983118230       0.67651538874253
O         3.90802386020467       1.56859415757159      -0.42256383216842
O         3.66977990849094       0.85014548151375       1.68776040898047
C         5.88853599447482       0.97383797754795       0.79475602669041
F         6.47300285865776       1.94774327458808       1.51302743572230
F         6.49123273497869       0.95228193658765      -0.40505895875711
F         6.19191999333677      -0.19426361149671       1.39739715659626
