59
C17H21F18N2P optimized with ForceField in AMS.
N        -1.23461846085056       1.25925431595540      -0.25802451944472
N        -2.70651323804958      -0.37867941182300       0.05725192036870
C         1.15266064969197       1.89752558563474      -0.18589039481404
C         1.65982937383721       0.45679232524505      -0.33945920788341
C        -0.20496793180812       2.09560041617864      -0.87319477266234
C         3.06756331124636       0.29290211366305       0.24461763143609
C         3.53736313602980      -1.16173323225023       0.12022301752520
C        -1.81577625901408       0.16743213889843      -0.79356940610003
C        -1.77556477754222       1.40871855127081       0.96788523287739
C        -2.68685961770800       0.39108070602115       1.16460739889147
C        -3.48110800376759      -1.60055675145934      -0.14958719571570
C         4.95242558290777      -1.33723665486057       0.65985707403736
C        -4.96939856825288      -1.28390133085655      -0.23861025818335
H         1.88381614143110       2.59697911797349      -0.64693959559217
H         1.06580129232926       2.15364198481942       0.89261552736393
H         1.67842563992666       0.18536518720728      -1.41812120342257
H         0.96584030377453      -0.23530503318923       0.18597468451674
H        -0.50675519288140       3.16250147783484      -0.79713773640188
H        -0.11061794899345       1.85202327865978      -1.95455935511494
H         3.06095523851321       0.58817324344653       1.31724654461845
H         3.77272631369876       0.95843723769104      -0.30096114133454
H         3.52103109982458      -1.47205691224775      -0.94741820770228
H         2.85118598154688      -1.82586922449556       0.68987081520210
H        -1.57967220163276      -0.23250905852033      -1.77206946927780
H        -1.51989964292332       2.19203188095937       1.66963472841328
H        -3.27899344997502       0.21774427292303       2.05381787937603
H        -3.16273568742516      -2.09908431656630      -1.09127291097745
H        -3.29681341277021      -2.30332088171072       0.69141273026134
H         4.99672830310912      -1.04107194431120       1.72953520497360
H         5.66533856475534      -0.72084380704292       0.07216443471894
H         5.25349595768487      -2.40246033723252       0.57426470261792
H        -5.32490030062825      -0.83030094942261       0.71055079036030
H        -5.53888505580487      -2.21943125220608      -0.42174552465025
H        -5.15843795803062      -0.57871081243133      -1.07561571673126
P         6.84025186087512       3.01960865432940       3.58311893713486
F         7.24422902006337       3.99697993884626       4.94546807411194
F         5.53337898702281       1.98129609440906       4.01176550590335
F         7.97822394483546       4.21292804600237       3.09178577625213
C         5.28888285674717       4.17374907672182       3.57775644634894
C         7.83148066522522       1.84146316796639       4.75640375126152
C         7.28626408208665       2.32435174023643       1.84949092190852
C         5.54440114449492       5.64508908553337       3.18501141899202
C         7.91994569293689       0.34563524363140       4.35845658393691
C         6.90695280254656       3.16554287119564       0.61719661927677
F         4.73646733640818       4.19279127398049       4.85330700248845
F         4.31485975037451       3.67191694792064       2.72851152303089
F         7.26268216904591       1.86771948823238       6.02620048808975
F         9.13120805526553       2.31332942149954       4.86213180923520
F         6.66697030250965       1.09799030405137       1.70891566458776
F         8.65557748451782       2.12512358371389       1.78350590585008
F         4.36005492306200       6.35121294226626       3.30016989510037
F         5.97357540920322       5.75128045160067       1.88044633795874
F         6.47625953133977       6.23757069856628       4.01739001805484
F         8.46356243274239      -0.36132491318647       5.41687508249079
F         6.67869897175116      -0.19762797522300       4.08662822080053
F         8.74941943266991       0.15326621772061       3.27283940202917
F         5.55986783611845       3.45441496788537       0.59208940436265
F         7.19743160811288       2.43554300943901      -0.52213146935672
F         7.64520272739514       4.33321965050501       0.56253823100043
