41
C11H22F3NO3S optimized with ADF in AMS.
N        -0.88881428219673      -0.58767316156955       0.22543599243438
C        -1.94849446861446      -1.02322380825475      -0.77163697507431
C        -1.41548959211204       0.74261352283303       0.71012546711885
C         0.42710013909679      -0.41902215474907      -0.51871555108945
C        -2.33637512501675       0.26144274568473      -1.50526188587220
C        -1.98436526745491       1.42294800131715      -0.53593685944632
C        -0.76124206166551      -1.56322247365191       1.37416067486353
C         1.62134626407468      -0.03119600171729       0.33051993826565
C        -0.28805482398263      -2.94169242403821       0.96464731087043
C         2.84107791531483       0.13606879872161      -0.58448250701177
C         4.11238222581926       0.43968162591685       0.20062016719470
H        -2.78446036993356      -1.41814956928496      -0.17325319137280
H        -1.52281927893720      -1.80990841022882      -1.41591050070633
H        -2.20505029890427       0.51418232736525       1.44267118987174
H        -0.60916154138939       1.29193355457241       1.21260830460627
H         0.62717772050628      -1.37779329456106      -1.01620075548543
H         0.24147341104265       0.33109245018702      -1.29918476994728
H        -1.77959070188741       0.34704755615188      -2.44949053725090
H        -3.40555851182690       0.24370178994613      -1.76094612012805
H        -2.86181114750462       2.02943490656943      -0.26871575243916
H        -1.24603353589806       2.10371613815745      -0.98409377342894
H        -0.07787401403257      -1.09500843830290       2.09815160472846
H        -1.76291026104037      -1.60204342231127       1.83186247355409
H         1.45195784715110       0.90326747203152       0.89642817354364
H         1.84813718523923      -0.82701669327316       1.05988105628282
H        -0.26056103987217      -3.57334323790241       1.86600061759404
H         0.71416202010472      -2.93352707693883       0.51367281206449
H        -0.96246357132807      -3.40999488152671       0.23518219698350
H         2.96353471458031      -0.79437066537918      -1.16270795693551
H         2.64194942827787       0.94171528503833      -1.31314411528698
H         4.33870683521055      -0.37515579624635       0.90639103516650
H         4.01998576723071       1.37440510938705       0.77721230925545
H         4.97497049491036       0.54194416532365      -0.47528418186396
S         1.06015536077021      -3.39973000151588      -2.69498423852094
O         1.92880582320994      -2.93679699148734      -1.58529720855078
O        -0.37951251366396      -3.11278393689091      -2.46639138295878
O         1.37613984342930      -4.70358573593889      -3.26911302859933
C         1.48462367646490      -2.18388569868210      -4.06656983217293
F         2.81126465961236      -2.19648515952068      -4.35627182471507
F         1.16305459674766      -0.89491145018188      -3.69906462703850
F         0.80105211226788      -2.45567179584935      -5.20716516620281
