58
C16H22F18NP optimized with DFTB in AMS.
N        -1.67263252517747      -0.21220183803207       0.49995202144765
C        -2.17706756707217      -0.80198748406399      -0.78889444101921
C        -2.74777096659675      -0.52923424631743       1.49894557292556
C        -0.37309105868647      -0.82152493185629       0.94623690302863
C        -3.70488157496681      -0.83650903649198      -0.68675576060128
C        -4.04696996524597      -0.35718547971362       0.72828767939203
C        -1.52981867680699       1.26088747633208       0.36896507045526
C         0.76932459030714      -0.65221133078782      -0.05172647857557
C         1.96057902529132      -1.50900683048991       0.39698806120443
C         3.12039052102944      -1.40019782408004      -0.59699470124435
C         4.29651022623956      -2.27324751156135      -0.16437691423802
H        -1.76846807980221      -1.80706389565191      -0.87145941201454
H        -1.81686499828582      -0.19837523842199      -1.62220393138816
H        -2.64703784381459       0.12745105940902       2.36310329725745
H        -2.61889378279394      -1.56837357616955       1.80543744916290
H        -0.56179456485374      -1.88274340054344       1.11102045078512
H        -0.12151194265819      -0.35950565271653       1.90467447756821
H        -4.05514304576426      -1.85962458500067      -0.83813008399781
H        -4.16628442131868      -0.19899863626040      -1.44250874888103
H        -4.36740435966648       0.68748898014156       0.72430323038697
H        -4.83765189606143      -0.95763243547137       1.17750659853248
H        -0.79729488240309       1.48313894068371      -0.40336073551902
H        -2.48960406024031       1.69110383074338       0.09278346141377
H        -1.19927423524699       1.67106479789336       1.32177163990456
H         0.45008827344340      -0.97668201221171      -1.04504007340143
H         1.07486795951204       0.39641861172271      -0.11534912291919
H         1.64228885205424      -2.55264173335433       0.47247961867830
H         2.28975756703219      -1.18379386495019       1.38932590269844
H         3.44397546162658      -0.35595248813800      -0.66966760084146
H         2.77753315383391      -1.71511184387746      -1.58808132389214
H         4.66343240383154      -1.96333634237677       0.81492401436733
H         5.10953653903026      -2.18521948863022      -0.88484852962962
H         3.99313516774090      -3.31895928429613      -0.10722993187997
P        -1.89448510293640      -6.13305867596752       1.28392856325999
F        -0.35313402496579      -6.66893747433009       0.96345755772417
F        -1.41373701219678      -5.44580314133190       2.73915344841438
F        -2.40764483035542      -6.68207331756953      -0.21820461932206
C        -1.21311464692726      -4.47805552456707       0.41842252083527
C        -2.22007880947246      -7.88760511268049       2.16322708977952
C        -3.79915431458767      -5.52428925608635       1.60594794615539
C        -0.91645742312068      -4.46130476073975      -1.10054736423423
C        -2.94048536307591      -8.00636304334949       3.54474993968635
C        -4.56827037882749      -4.34946921300830       0.93681525991509
F        -0.05811202340704      -4.10491178716271       1.01055523354150
F        -2.05751853469046      -3.41710189573428       0.61875620556070
F        -1.01904878630028      -8.45246633864149       2.37831304698644
F        -2.88633512705698      -8.69411731007621       1.32160069748305
F        -3.95676782715321      -5.31425381704883       2.93048213193129
F        -4.52553063572876      -6.61736940305260       1.28981375696267
F        -0.25266465531051      -3.31226958536613      -1.39794466948099
F        -2.03385052456503      -4.44031522446302      -1.81918972685522
F        -0.16148039459741      -5.46428975124502      -1.50082063610727
F        -2.68641391675699      -9.21511321799335       4.05552000656033
F        -2.50168504546123      -7.10467123301351       4.41914960867544
F        -4.25986910804641      -7.88965322572991       3.44919014799800
F        -4.32682011586717      -3.18862508062866       1.57501978005399
F        -5.88189986809993      -4.54800161876935       0.99221427240108
F        -4.24907299640286      -4.16868702240520      -0.34690984399121
