35
C9H18F3NO3S optimized with ForceField in AMS.
N         0.01133305163905       0.00683664872407      -0.00758788805014
C         0.92726394865200      -0.82981778522114      -0.84286453281082
C         0.91567860175170       0.86000911675481       0.82309214657894
C         2.33797930395903      -0.29606997328260      -0.68387919221238
C         2.32940792450839       0.32980045512065       0.68216991353391
C        -0.81401667646705      -0.86377958320576       0.89168008334081
C        -0.83308146008057       0.86324987342290      -0.90220911009877
C        -1.79550092336616      -1.79696823582576       0.15864716186799
C        -1.82891857305386       1.77582583091402      -0.16330665904455
H         0.64799884224009      -0.84783998511816      -1.92133186759627
H         0.94816685337749      -1.89171891025302      -0.51151312549553
H         0.62755366435622       0.89071583593881       1.89908129013054
H         0.93345653677440       1.91845637553106       0.47488272404211
H         2.53770650031984       0.48043989672000      -1.45530126998339
H         3.09899148694561      -1.10368645586851      -0.75939995196030
H         2.52190354545517      -0.44634264523013       1.45589624239644
H         3.08730345370017       1.13937822440125       0.76649978150291
H        -0.14741058941084      -1.49631891683971       1.52134530241507
H        -1.39816173009675      -0.24775994068326       1.60983676682828
H        -0.18019707529508       1.51103589692802      -1.53147911018440
H        -1.40741792721710       0.23771588671992      -1.62000601174657
H        -2.25859761351956      -2.48554666238269       0.89670611821323
H        -2.61485520451770      -1.22274212951265      -0.31884876655910
H        -1.28532493124507      -2.41385954964574      -0.60833763475016
H        -2.30313223615309       2.46156437735099      -0.89688213013559
H        -2.63893802264348       1.18563527356178       0.31059554926457
H        -1.32718800129341       2.39480100922788       0.60770048700500
S         0.10933537792192      -6.49467867113258       0.76848470175794
O        -0.93817323429995      -6.33646189385086      -0.34353213373597
O         0.58109876444604      -7.94684843263763       0.60259758595348
O        -0.74147298599626      -6.54628785537749       2.04608610409965
C         1.42619484893879      -5.25008796378922       0.77078077886447
F         0.87471731530051      -4.00286805107889       0.98362171179510
F         2.07799623439114      -5.26613220878567      -0.44731033147875
F         2.32595899317837      -5.53315733139469       1.77996747315227
