22
C8H8F3NO2 optimized with DFTB in AMS.
N        -0.59738269389214      -0.57217301809901       0.26479674871170
C        -0.10177064778711       0.61019244005850      -0.21958879178612
C         0.21269239166336      -1.73393098448986       0.28616316319034
C        -2.04454981911755      -0.76223222112642       0.33343914248366
C         1.22810245352601       0.82549447872824      -0.32912004180882
C         1.65679480530514      -1.42489252741521       0.41216854848511
C         2.12898591900442      -0.21557708889178       0.06242198218609
H        -0.83973691865149       1.37694702137169      -0.42650892237179
H        -0.16028630084759      -2.45651955623619       1.02105411342398
H        -2.44904766103177      -0.99545677876637      -0.65509902155004
H        -2.26296051888144      -1.58561073745200       1.01238369894063
H        -2.50650735779077       0.15086205459013       0.70869997705645
H         1.60731814323706       1.77974798676917      -0.66655909723013
H         2.30036193051946      -2.23960301914826       0.71710315402677
H         3.19039870097976      -0.00051118906027       0.10879195350953
C        -0.87311410004074      -3.39270085348473      -1.14972825154725
O         0.03764479973992      -2.47239391353305      -1.06623888609281
O        -1.63105417227044      -3.76348211799666      -0.29949535259563
C        -0.88626478781228      -4.00963647050326      -2.59653587313883
F        -1.78765975646989      -4.98019259506811      -2.69422870233521
F         0.30774714121696      -4.51458249285976      -2.90979369094485
F        -1.18697373509889      -3.06978894038677      -3.49697015931278
