30
C8H12F2N2O4S2 optimized with DFTB in AMS.
N        -0.30475828145890       0.06302721954520      -0.07686482331327
C         1.07281009111203       0.06462085758368      -0.58648546926933
C         2.06044981571903      -0.14618592882557       0.56731029010131
C         3.49312700681688      -0.15618781826987       0.04600195496230
C        -0.85299635731994       1.21504337824285       0.34224490931380
C        -0.95552274012924      -1.10536504695929       0.05421353769723
C        -2.12015489979649       1.22776083591738       0.88671052552773
C        -2.22880443372544      -1.13985925215579       0.58016862548536
C        -2.82519960624501       0.03852386434561       1.00886589954827
H         1.16125625880854      -0.73621273689244      -1.32504101203725
H         1.25048592831559       1.02415736211490      -1.07808914299737
H         1.83138621776474      -1.09311928629461       1.06226548049477
H         1.93098672742232       0.65622451382069       1.29754704526233
H         3.64362211849567      -0.97577942089038      -0.65783996624113
H         4.17958868949613      -0.28496469048271       0.88181671639874
H         3.72824689430851       0.78357407491955      -0.45536761768870
H        -0.24982139665720       2.10993690669434       0.25480757039032
H        -0.42968265464952      -2.00249166582083      -0.24820493340656
H        -2.53127092215413       2.16108251427846       1.24863634306029
H        -2.72341559377864      -2.09459541221409       0.70033874860361
H        -3.80695981772660       0.02442960782599       1.46509772306483
N         0.08166105737962      -0.54816310628179       2.80426741109078
S        -0.24142891889572       0.83279420668978       3.51236156166190
S        -0.56848284785997      -1.89131766145741       3.35025447541359
F         0.51978493357083       0.78934216943819       4.92624514035537
F        -2.17885603478745      -1.62839867656333       3.25601906937401
O         0.45591834043257       1.83300721094034       2.75190891122964
O        -1.61348290640307       1.07736706331454       3.83050111585024
O        -0.34026547423877      -2.21664640444951       4.71476629674575
O        -0.33310632971639      -2.87758902291388       2.33763115942144
