44
C12H24F3NO3S optimized with DFTB in AMS.
N        -0.29585796214555       0.12849750017278       0.00724259532275
C        -1.05683669324454       1.02777503212887       0.94623884904706
C        -1.07876472823816      -0.02298108711861      -1.26317279341256
C        -0.04191800965865      -1.19219551912919       0.68162260162958
C         0.99759578311982       0.80789451404894      -0.36786667949674
C        -2.49361017313679       0.58219064002397       1.18866726635881
C        -2.48845816753761      -0.55067194390018      -1.03106540067305
C        -3.26045858024920       0.39885940341677      -0.11712663249147
C         0.65984494329435      -2.24204561197364      -0.17361468477269
C         1.99176382623483       1.01499815301544       0.77418218770590
C         0.97942000457484      -3.44803311669473       0.71206907338962
C         3.15984736045178       1.86290100822381       0.27580857556309
H        -0.51890738330565       1.04043886823272       1.89393987502561
H        -1.04152849304593       2.02939094846452       0.50706214273576
H        -1.12913765275175       0.96823186523760      -1.72364077408437
H        -0.51716573201873      -0.68427581281526      -1.92541846211212
H         0.56097917909399      -0.97532286059062       1.56382508848315
H        -1.00180974807751      -1.57554519448952       1.02677385094459
H         1.45702128023903       0.20896831858715      -1.15873383615328
H         0.72195659831349       1.77633130831703      -0.79623935021387
H        -2.50862229014248      -0.34142764719872       1.76932701151459
H        -2.96719760660845       1.35703045143112       1.79654050796161
H        -2.97925538675862      -0.62003472247796      -2.00558145811300
H        -2.45846141847709      -1.55396269845064      -0.59918167961667
H        -4.25123605854873      -0.01159313701767       0.09015640612097
H        -3.38817585661456       1.36445650800668      -0.61818639755239
H         0.02356291529054      -2.56256363125188      -1.00426390301985
H         1.59080693316027      -1.84757304987201      -0.58973626434190
H         1.51309600485746       1.51648202443248       1.61688499429107
H         2.37082375448965       0.05593278800021       1.13069322177652
H         1.49384984369984      -4.20975494917581       0.12732322920043
H         0.06241230688527      -3.87596374855127       1.11710150521168
H         1.61926012792879      -3.14906607447441       1.54205238713829
H         3.87484813288108       2.00188921153857       1.08553684004301
H         2.81411851740097       2.84328426928064      -0.05512998147853
H         3.66705483966590       1.37212093903801      -0.55615551049957
S         0.20965628390010      -0.51483453167964       4.18153377848337
O         1.37148159363833      -0.30286167198239       3.32198026026943
O         0.41892799669240      -1.38347813211226       5.30620876657078
O        -1.01642821485241      -0.74619086697302       3.42274921882530
C        -0.06790495836848       1.17692918893746       4.89228050242729
F        -0.19987836530308       2.05008011706559       3.87539539129931
F         0.95074791596643       1.58102690050907       5.63711766430345
F        -1.17538262719521       1.24054530211997       5.61868073298901
