49
C13H28F6NP optimized with ForceField in AMS.
N        -1.54827055866250       0.10270986559039      -0.07969647133066
C        -2.56328801123522       0.49621668948952      -1.11103591005324
C        -1.78773943081400      -1.32405526651190       0.31433866219772
C        -0.20468859427044       0.19638528105624      -0.74697129877339
C        -1.62263088972762       0.98158582191245       1.13968062857079
C        -4.02104103045571       0.27969900434066      -0.67310480712086
C        -3.23012430052086      -1.61368613083201       0.77419997846120
C        -4.24787105962505      -1.17393384670767      -0.27345771121218
C         1.01853361998684      -0.12212622800832       0.14860888610607
C        -1.27087474758377       2.46413152170480       0.91681629714092
C         2.31953785522101       0.03871711502000      -0.64795078352099
C         3.54471210200429      -0.29964089507793       0.20909397687719
C         4.83813674134700      -0.11307895196911      -0.59195726469797
C         6.06375663409472      -0.48240198383076       0.23671150771728
H        -2.41478591071133      -0.10193424145416      -2.04129194968367
H        -2.43791787783940       1.55406616572160      -1.42277299928298
H        -1.11832415285815      -1.62390810964006       1.14914278139245
H        -1.56369635507714      -2.00697030391012      -0.53811272265953
H        -0.06291846850318       1.20788429302368      -1.18973574823435
H        -0.16583352351052      -0.50111799986228      -1.61654574628973
H        -2.63401241031508       0.96238614469940       1.58863616399976
H        -0.96150750158967       0.59066810121610       1.94318225392144
H        -4.69305230904262       0.52285904215562      -1.52406071744983
H        -4.29775055388052       0.96136175965791       0.15642035525042
H        -3.44130062315910      -1.11902460077492       1.74481532293132
H        -3.34271480778906      -2.70730989231465       0.93961269084604
H        -5.27447981560105      -1.28944449558946       0.13597016346084
H        -4.15856120528859      -1.82429978630750      -1.17187115793884
H         1.06203697581700       0.56562090006696       1.01683158067936
H         0.96356234141668      -1.16608403206466       0.51902651414818
H        -0.22829355486076       2.59598279090978       0.56677589440070
H        -1.97415915919084       2.95052495937943       0.21362123814201
H        -1.35557753489470       3.00169000700860       1.88506205549428
H         2.40112160383502       1.08863363655648      -1.00659875517672
H         2.29495987015661      -0.63593895435352      -1.53201084949188
H         3.47187134150982      -1.35552305194791       0.55183204192708
H         3.56654888391560       0.36303357286542       1.10243547637341
H         4.81478944510063      -0.75600671709011      -1.49855620033890
H         4.93030741906799       0.94720314873268      -0.91368456636041
H         6.00350017344537      -1.54036423175587       0.57001857505508
H         6.97411390771813      -0.36083154747819      -0.38631401728653
H         6.14623806064413       0.18061022455633       1.12444603448096
P        11.00923739346867       0.63452566336616       0.41747847548588
F         9.30911022357030       0.62517948348671       0.18051164463833
F        11.11739623788529       1.99387032679127      -0.62762401890602
F        10.78084037404811       1.65844878475492       1.77802507280563
F        12.70771025985966       0.70269589181439       0.66709919132052
F        10.88613008356806      -0.74604546664181       1.43288898531515
F        11.21725019592595      -0.41311047415456      -0.92842340673132
