55
C15H29F2N3O4S2 optimized with ForceField in AMS.
N         3.08693013259470       0.91255143714758       0.01626739733141
N         2.92434930963680      -1.29987643619563       0.18023528304494
C         1.47679245178998       2.76841011955570      -0.22398326490260
C         2.84666646950059       2.32353109825661       0.31100430438847
C         1.00421732481624      -2.62586360051016       1.00156639294097
C         2.50742078208538      -2.60976757152434       0.67907335960628
C         0.31830738993484       2.09129236289211       0.52518254567413
C         0.14340116636210      -2.29795449529055      -0.22850330109392
C        -1.03839178510670       2.52632966079493      -0.03710406977592
C        -1.34947160795872      -2.28675288680536       0.12191656865107
C         2.83906058388126      -0.12640005171947       0.83675658730618
C         3.35334482300436       0.37833331281049      -1.19279182154375
C         3.25907443536156      -0.99386624656579      -1.08964586759602
C        -2.18816712764234       1.85405902446719       0.72169061409106
C        -2.18336228356650      -1.77851431140501      -1.06107004757521
C        -3.53556812805751       2.15990675792378       0.07410397221584
C        -3.66622268388721      -1.71013436670072      -0.70774510151527
H         1.39212122450680       3.86990063984332      -0.10162231136626
H         1.41094129973309       2.53792568148839      -1.31004555074301
H         0.79541193966799      -1.89137876859563       1.80985786329426
H         0.73309634049300      -3.63508344847047       1.38014597375523
H         3.64531724584418       2.93572310997240      -0.16069962530223
H         2.89584047448325       2.49780857895802       1.40834369619410
H         3.08386978375442      -2.84922034764409       1.59842167122910
H         2.73198164418075      -3.39542595865076      -0.07523986995919
H         0.37469711951959       2.35254581651013       1.60458610558306
H         0.39988775334233       0.98865284268408       0.42369190511510
H         0.33022584973480      -3.05247949556751      -1.02385583885663
H         0.42503292036138      -1.29768144473389      -0.62180771317649
H        -1.14081171732896       3.63096756779864       0.04191275967531
H        -1.08974655613957       2.23818203888145      -1.10791785241005
H        -1.51945683882390      -1.62623696969104       1.00016023761405
H        -1.67303430895396      -3.31647560535651       0.39044325188942
H         2.50898194870940      -0.02476071584786       1.86285989909704
H         3.53233561122020       0.94495209310288      -2.09698185104942
H         3.34450372349484      -1.70642366632541      -1.89931975910215
H        -2.04070867563798       0.75421661596836       0.72902998338412
H        -2.19960892970473       2.21116928525948       1.77434998940206
H        -2.04924382369026      -2.45780759160577      -1.93073608946204
H        -1.84056529946262      -0.76192119115490      -1.35436938341129
H        -3.73062373240687       3.25321969464937       0.08518072640865
H        -3.55206660379713       1.79309799303483      -0.97456542806126
H        -4.34366875477082       1.64772875421866       0.63806662562540
H        -4.23596539623179      -1.31128834856561      -1.57361110757477
H        -3.82784470042766      -1.03678567519608       0.16060612262913
H        -4.05124553185628      -2.72258394629437      -0.46252487207250
N        -1.74899533032580       2.58974761846550      -5.71631854119012
S        -1.76300926819958       2.17166351872068      -4.13434640989303
S        -1.76767800949041       1.45863301635142      -6.89804865814425
F        -0.24201805831309       1.62754791591408      -3.69305351253481
F        -3.28081721346974       0.74443126438851      -6.95653521970858
O        -2.12394059641452       3.37103359419178      -3.30501345223999
O        -2.75908999873647       1.07094843365175      -3.89919578970445
O        -0.74129269123385       0.39947362697202      -6.60957944748851
O        -1.47164416737883       2.10785809114279      -8.22008531929267
