37
C9H17F2N3O4S2 optimized with ADF in AMS.
N         0.18499633215651      -0.90716928767040      -0.50232581481049
N        -1.20139451763470       0.64364134003876      -1.12902118229915
C         1.18067159945343      -1.65483252644071       0.28082622505290
C         2.58732195175286      -1.09291920085783       0.08916170518422
C         2.82541707558820       0.21855439926919       0.83413045371914
C        -0.46459951462037       0.19503624289873      -0.10481234594074
C        -0.11907384634164      -1.14646548850048      -1.82413937630041
C        -0.99170153572105      -0.17366775802004      -2.21620805470397
C        -1.97367621681243       1.89851163658877      -1.13966953280334
C         4.19246470531927       0.81625436927054       0.51295529177306
C        -1.15676872894255       3.06660839780998      -1.66520065595725
H         0.86615416444303      -1.61094762859000       1.33548945676025
H         1.10471483497024      -2.70167320920031      -0.04786045199197
H         2.77291779049230      -0.95575962512332      -0.99044416526601
H         3.29909151077709      -1.85980557888408       0.44501773526300
H         2.05618461770217       0.95257329943046       0.54239258196568
H         2.72858579553147       0.03900998571976       1.92239373238050
H        -0.39752787249450       0.64970325442456       0.87470679436970
H         0.34611087964934      -1.94978051279505      -2.38148263112369
H        -2.86377716882680       1.70457782465889      -1.75754412434295
H        -2.31887731009530       2.06318453720522      -0.10774315971689
H        -1.43895777441579       0.02962101144981      -3.18064562265937
H         4.24914383976520       1.09276392872201      -0.55038554543801
H         5.00009588446179       0.09909199882960       0.72939255412950
H         4.37563898659564       1.72731212009593       1.10163480073878
H        -0.26995313160650       3.24837340133600      -1.04337674213656
H        -1.78522652210532       3.96904452866097      -1.66854985061866
H        -0.79541389989952       2.88147746950471      -2.68530928930960
N         3.18146986223505       2.24901469534410      -3.63427929829042
S         2.09111162683843       1.23167883656138      -3.11287978032608
S         3.05068104506089       3.81639365088990      -3.22875029129333
F         0.76891626139537       1.48196780829160      -4.12094955873720
F         3.53717010411901       3.79532974966727      -1.63954010357159
O         2.49071237254073      -0.12951367884275      -3.43566356695182
O         1.53021811603330       1.49253858540230      -1.78832319438409
O         1.69102272795814       4.32584336516172      -3.16506684821768
O         4.09519731137699       4.53816899469282      -3.91681271114547
