79
C23H36F18NP optimized with DFTB in AMS.
N        -2.11449336643068       0.29157069056095      -0.09164238294845
C        -3.42436756037428       0.18759448784733      -0.82462160364386
C        -1.93808070902525       1.70494069192648       0.37890051389167
C        -2.06871001674229      -0.64442255885689       1.08673536537530
C        -1.03245943039217      -0.02008136846797      -1.09553842068549
C        -4.61780265457219       0.65005802652579      -0.00437115536617
C        -3.10140071064375       2.20446872812609       1.22996018761674
C        -4.42442681102767       2.08675594012664       0.47408818510679
C        -2.05567868789021      -2.13782491135859       0.73255293773975
C         0.38193508079188      -0.10747747918584      -0.53377000504467
C        -3.12148138639229      -2.90403999621333       1.52416865632357
C         1.33831699633601      -0.45444318499354      -1.68304574224822
C        -3.04021557420351      -4.40345993379408       1.22243167086701
C         2.77734463461123      -0.59693455234877      -1.18040713076484
C        -4.20983559705748      -5.16230844301394       1.85525565769612
C         3.72635417509028      -0.95860551662029      -2.32744621269791
C        -4.14357261897038      -6.65122402269197       1.51973451553071
C         5.16409807597789      -1.10735064421537      -1.83372199957398
H        -3.33200547856964       0.80292638020739      -1.72119161746690
H        -3.55005853063537      -0.84896177040244      -1.12644744210479
H        -1.00545805628393       1.75616211800592       0.94431468113389
H        -1.84319514985595       2.32610237423307      -0.51609233348843
H        -1.18107504403999      -0.37786428523745       1.66478054195168
H        -2.94147275741163      -0.41599441085363       1.70007327721712
H        -1.29702300281439      -0.96364640899260      -1.57187039615272
H        -1.08185454223189       0.76351461833923      -1.85444164666254
H        -5.49378219241241       0.58696750570696      -0.65471335186419
H        -4.79094079809951      -0.01462036521699       0.84590769486573
H        -3.15303634343596       1.65245440546250       2.17215380637138
H        -2.90060414219983       3.25186501595545       1.47077123902030
H        -5.24876441269691       2.37833838325196       1.12856223626342
H        -4.41517243861215       2.76326099653473      -0.38634302653016
H        -2.23743472843835      -2.29447926026545      -0.32964809410281
H        -1.06674609908885      -2.54892719964781       0.95483080354251
H         0.44831870490231      -0.88647075961531       0.22968494944972
H         0.68331638976256       0.84141734443268      -0.08031726365152
H        -4.11025526947725      -2.52636883127234       1.24426889376075
H        -2.98481630611204      -2.73078676834009       2.59736806298484
H         1.28966396132478       0.32966224345019      -2.44549035867222
H         1.01714390608253      -1.39250420348026      -2.14667118480714
H        -3.05769581899930      -4.55310601021417       0.13995549482312
H        -2.09129413003232      -4.79969252686797       1.59963394289106
H         3.09840923452768       0.34397842167149      -0.71973943156409
H         2.81833941315773      -1.37620987897298      -0.41155065347275
H        -4.19147798863241      -5.02840517740080       2.94262971355428
H        -5.15239865705400      -4.74823637716915       1.48191167297711
H         3.39918881277404      -1.89738858860352      -2.78590260145242
H         3.68267324493437      -0.17835352935647      -3.09455061669736
H        -4.98623203286510      -7.17423615121505       1.97226816316297
H        -3.21822306031489      -7.08784302563853       1.89833854331677
H        -4.18105032975332      -6.79827953247710       0.44004163769893
H         5.51549418468079      -0.17447779319522      -1.39036577534313
H         5.23099561080360      -1.89551505381426      -1.08251364688911
H         5.81893332968662      -1.36463413028005      -2.66621269584632
P        -3.80859532046986      -2.67846850332675      -3.65879089428140
F        -4.55617569503141      -1.20058140619292      -3.27379941497585
F        -4.98182634368377      -3.00917506461326      -4.78658671667528
F        -2.59270800227191      -2.32256252393435      -2.47989862456509
C        -2.74867782160318      -1.67458359991610      -4.97758135787575
C        -4.92477520274598      -3.39261969551071      -2.19930832913883
C        -2.90729462816639      -4.40414976401930      -4.07491637074531
C        -2.76152776376987      -0.12377320844186      -4.92995481246418
C        -6.43866160175707      -3.59468211669632      -2.46758177145237
C        -1.68187514793061      -4.87604841761103      -3.24129008811260
F        -3.09487659163322      -2.00211118406639      -6.23048023870126
F        -1.45200477071575      -2.01592487292413      -4.81325910027136
F        -4.85652070896875      -2.52935332332524      -1.15120324332631
F        -4.45810197521986      -4.56384770269973      -1.73364960777778
F        -2.49051719680357      -4.37315682841697      -5.35337804409968
F        -3.83588315402641      -5.37649604573291      -3.99426544843504
F        -1.87421069025822       0.37300971426882      -5.79190103324801
F        -2.40054378225601       0.32120467356853      -3.70824420650315
F        -3.94462058444305       0.39447242927065      -5.22000554514852
F        -7.05629593136457      -3.92018629312502      -1.32546985727962
F        -7.00091953052847      -2.47963514129203      -2.92374270394006
F        -6.65381917663483      -4.57069009200651      -3.33852251277370
F        -1.33044573904165      -6.11331476696500      -3.58779700119317
F        -1.93518340571388      -4.88178039611245      -1.92985436355476
F        -0.63033549481649      -4.08286227995371      -3.43948858415207
