60
C18H39NO2 optimized with ForceField in AMS.
N         0.00050898029091       0.00056879012297      -0.00076207176381
C         0.84530484885708      -1.02957901817124       0.70245602355462
C        -0.86938883985652       0.68356972599150       1.02213067922739
C        -0.82549285255533      -0.69546746210135      -1.05081493981035
C         0.85146095118240       1.04382671705975      -0.67667521157696
C         1.89843748956550      -0.47946694654929       1.69900712010081
C        -1.93761232857888       1.65826339435788       0.46248500071550
C        -1.89637896313264      -1.68663772645490      -0.52594489207884
C         1.93830797938107       0.51073169172337      -1.64573418178459
C         2.68950067553131      -1.63019977171020       2.33611737666177
C        -2.75683621828180       2.27459158945001       1.60457443564937
C        -2.66914891866253      -2.31315669044456      -1.69475784156548
C         2.73875929948833       1.67339124420834      -2.24855991444808
C         3.72038837592181      -1.10867213004089       3.33314934699072
C        -3.79558157080810       3.25646318016352       1.07090164549072
C        -3.71386635596816      -3.30849246554063      -1.19810080464541
C         3.79867598167402       1.16957052945403      -3.22396492241712
H         1.36725472407891      -1.67773581417850      -0.03646099247310
H         0.19795332251619      -1.71609690890992       1.28956978603067
H        -0.24188567068778       1.28348756001952       1.71585960273939
H        -1.38178441002591      -0.06736097509804       1.66405061866464
H        -0.16679234490683      -1.28570992066435      -1.72367457737419
H        -1.32792492954634       0.04788491955268      -1.70926130050077
H         1.34363858353101       1.69624015335698       0.07876838799091
H         0.21253504213461       1.72373820136412      -1.28024338717834
H         1.40246038667248       0.08490918548620       2.51455107631849
H         2.61827018336358       0.19209969651961       1.18912331008180
H        -2.63764946081376       1.13561901782170      -0.22006870516855
H        -1.45239055811665       2.48658981935343      -0.09254953552573
H        -2.62568190747871      -1.17485740233129       0.13381129684874
H        -1.41687932130152      -2.50803450529599       0.04426132034543
H         1.47057498663748      -0.04919234863958      -2.48091666100415
H         2.64768360389857      -0.16061579861248      -1.12125020636362
H         3.21595639926734      -2.20801721284816       1.54513579547233
H         1.99357305010930      -2.31550402268211       2.86816183590487
H        -2.08080309116813       2.81541604850994       2.30280676731809
H        -3.27833468188985       1.47171147484289       2.17030334546745
H        -1.96334520400033      -2.84435485524446      -2.37054921960657
H        -3.18132759211675      -1.51620081609654      -2.27718552754472
H         3.24051217422225       2.24504451200545      -1.43730781392768
H         2.05296377282508       2.36080286743021      -2.79097966204753
H         3.21930292033454      -0.53781774811077       4.14394459887086
H         4.45432952712525      -0.45137637617282       2.82006129954205
H         4.26441953762555      -1.96426106956770       3.78590800894586
H        -4.51796687653195       2.73181212845391       0.41002657057857
H        -3.29785167178462       4.06771952142335       0.49885522222378
H        -4.35123486787238       3.70837460526220       1.91944934815259
H        -4.45659502930712      -2.79624003494023      -0.55009594648245
H        -3.22673010368329      -4.12565006621878      -0.62423779009663
H        -4.24511580301484      -3.75273039115246      -2.06609374463930
H         3.32235353768950       0.60690390555270      -4.05516174953656
H         4.52184478932377       0.50915778100873      -2.69973470358066
H         4.35028172829498       2.03348116950740      -3.65102364252585
C        -3.82866425505859       7.47352045899386       0.01691529785149
C        -2.70554384982423       8.23161923225178       0.65113229285408
O        -2.45440517024779       9.36835324305834       0.28463334017365
O        -2.03836943797584       7.71891599955650       1.53527168702507
H        -4.78323982525507       8.01742078171378       0.17657591740055
H        -3.64304422885627       7.37272311545577      -1.07318211244166
H        -3.91682691173432       6.45998774434483       0.46163223921648
