42
C12H23BF4N2 optimized with DFTB in AMS.
N         0.13855101852905       2.47320166292652       0.40295464368890
N        -1.88432337103681       1.74357473955849       0.34894414324477
C         1.48717519672749       2.77415511543152      -0.06542742589753
C         2.47360947697634       1.68235754370399       0.35472212153537
C        -3.09459428201978       1.11794450675887      -0.17423296863238
C         2.12961801830002       0.32464018593537      -0.26497497105775
C        -3.12426834031195      -0.38183520704901       0.12842206423566
C        -0.72449948930059       1.74829723156525      -0.29891461076563
C        -0.47780454206275       2.93547323847811       1.53465738677108
C        -1.75718369092951       2.47373479099669       1.50141595873340
C         3.21924105785082      -0.71348060580936       0.01645877235052
C        -2.01013856949516      -1.14375907269339      -0.59748141959661
C         2.84828482248849      -2.07020864952494      -0.57981743136461
C        -2.19660376195713      -2.65399960067438      -0.47178394768018
H         1.78092239957835       3.73910703215029       0.35401724496048
H         1.42934921150354       2.84920625780744      -1.15594575687141
H         3.46712964359339       1.99730621623076       0.02259871560038
H         2.49108036861066       1.60456207475096       1.44704170374371
H        -3.95273103942647       1.61815205358641       0.28070879191421
H        -3.09932641589066       1.28822115802620      -1.25574874246342
H         2.00050057170460       0.44179447823923      -1.34533256377971
H         1.17963857357671      -0.03173162345949       0.14873631608432
H        -4.09756804057886      -0.75724191986945      -0.20158705484570
H        -3.04949306050581      -0.54164466285508       1.20898534937142
H        -0.52102994934212       1.26242426955728      -1.23595342261997
H         0.02975997622657       3.55306039213505       2.25495054716034
H        -2.57561069642922       2.61377807349393       2.18573824328597
H         3.35931854673408      -0.81493475942132       1.09858630568088
H         4.16712853384294      -0.37309822128920      -0.41334717811264
H        -2.00510840900994      -0.85804619655538      -1.65417110935468
H        -1.04112775903629      -0.86663747950118      -0.16949734655307
H         2.71956795446205      -1.98892985628492      -1.65958660116910
H         1.91601419282803      -2.43597354232943      -0.14640343659427
H         3.63501026386011      -2.79697428844864      -0.37625824000340
H        -2.19444011869054      -2.95559242178248       0.57686651665395
H        -1.38438007767852      -3.16984609944444      -0.98372195350492
H        -3.14158650313289      -2.96225308599956      -0.92062347181157
B        -0.56010131531330       2.13412612184242      -3.20594110241906
F        -0.61710256622309       3.24823573434493      -2.33088288681545
F         0.60906810704022       1.40918870099335      -2.84016922056034
F        -0.54562299391852       2.50391961860417      -4.51392918957669
F        -1.67576044304353       1.30495222847442      -2.89801694406529
