48
C12H26F2N2O4S2 optimized with ADF in AMS.
N        -1.38646914262852      -0.26098701618623       0.26417607025686
C        -1.39129265828286      -1.64128021676492      -0.37490775740199
C        -2.48820928996275      -0.35560915152625       1.31650849628921
C        -0.05646806025111       0.03646734761114       0.92393100476885
C        -2.86020629794805      -2.01494834330589      -0.46511352351603
C        -3.47564225821213      -1.42650491605085       0.82251360284970
C        -1.75029711912648       0.76912971436262      -0.78853322425111
C         1.12983744937821       0.04244565262595      -0.01980117452273
C        -1.64814411328846       2.21071324163465      -0.33240678436520
C         2.41860563625057       0.20941673236123       0.79085080126654
C         3.66765016057502      -0.07703232961648      -0.03589336800042
C         4.94421081463407      -0.00153010391511       0.79712317061692
C         6.19546645931151      -0.31126938878896      -0.01884209094699
H        -0.86477323480763      -2.31370237529951       0.31444803275965
H        -0.85856732922665      -1.59786017714823      -1.33212209150934
H        -2.92532920499757       0.64180773283857       1.44607340171534
H        -2.00823443698771      -0.66370412343027       2.25554107500385
H         0.08815964387084      -0.75039006305445       1.67807034885451
H        -0.17110529505200       0.99307436846360       1.45587586686588
H        -2.96699605697226      -3.10769748907834      -0.51016588737123
H        -3.32810926701566      -1.59517206340994      -1.36968413730617
H        -4.47883263620488      -1.01383995562427       0.64540258761971
H        -3.55368515053898      -2.20756269966434       1.59236880331016
H        -1.08474081586998       0.58453343688261      -1.64383355405458
H        -2.77758857904110       0.52970177936837      -1.09822994823583
H         1.18347579996506      -0.92383223378303      -0.54711185879104
H         1.05354573096199       0.84132031115590      -0.77907497954654
H        -2.03922009807025       2.85161034020445      -1.13761221185269
H        -2.24659532379281       2.41526271015322       0.56701928497236
H        -0.60976236108238       2.51278865714068      -0.14176779283878
H         2.39621659225213      -0.49268497168825       1.64163949752670
H         2.46716086212769       1.23005362212843       1.21484068155541
H         3.73169629862247       0.62456147633075      -0.89055897077392
H         3.58000397624278      -1.09483118254144      -0.45873366885607
H         5.02913395742208       1.00421489824691       1.24953669663322
H         4.85402948368748      -0.72054656100371       1.63027799421751
H         6.31934992003144       0.40745039842648      -0.84556418495750
H         7.10289435886880      -0.27193671243238       0.60279539518892
H         6.13115992503485      -1.32060028803617      -0.45666952061763
N         0.90081977130587      -2.61402380585970       2.82458334789287
S        -0.60129884075730      -3.05971664382217       3.15774142891597
S         1.88308143202632      -3.60544453186499       2.00578328528070
F        -0.45288470143678      -4.19103077309174       4.32924734533572
F         1.32664273449820      -3.38344167377458       0.42919641242602
O        -1.24358982757095      -1.93005255876368       3.81814380191365
O        -1.32012512267382      -3.73609945629397       2.08325847370185
O         1.70520009620799      -5.02050963344941       2.24376354792401
O         3.19198717922369      -2.98598382866632       1.97790358375369
