46
C14H29NO2 optimized with DFTB in AMS.
N        -0.92100907710314      -0.15587901619762       0.09562741331427
C        -0.80284421275067       1.33974039557107       0.03556669418306
C        -1.51789275289336      -0.55944739817836       1.41500912891228
C         0.46013324894868      -0.76087872626946       0.05909278517737
C        -2.12057546532807       2.04968158450689       0.31213495989407
C        -2.85114753911434       0.11767944697809       1.70292559566515
C        -2.68124914915053       1.63431562700990       1.66986791641708
C        -1.73902554325385      -0.68043706538416      -1.02653656451440
C         1.19223888966060      -0.61888312959222      -1.27356632734879
C         2.66699413485562      -1.01966155878261      -1.10711689255137
C         3.50139951404262       0.08576553966411      -0.45115433754324
C         4.95836781522580      -0.35086816383460      -0.27359291521053
C         5.77692366038134       0.74347674671827       0.40954634749333
H        -0.43023444799521       1.60282500081939      -0.95641131032577
H        -0.05216131357631       1.61518212332508       0.78783438362807
H        -0.79733410628332      -0.24935263690479       2.18460389621215
H        -1.61995185147472      -1.64717083161746       1.40881937195928
H         1.02087853817646      -0.25782923489922       0.85512439601999
H         0.34961092395334      -1.81991513019110       0.30786466076639
H        -1.91345606907204       3.12307695360375       0.30939916113829
H        -2.84827468734510       1.84813874597413      -0.48177353639555
H        -3.62561075403371      -0.20211042765617       0.99740433903076
H        -3.16069273242859      -0.19838736459769       2.70251834628580
H        -1.97992188053703       1.92954229919324       2.45663795556635
H        -3.64128288682713       2.12530002692123       1.84597249870055
H        -1.33280315473122      -0.31848512045672      -1.96841975377348
H        -1.71245524739604      -1.76878307772221      -1.00260392767598
H        -2.76548534658452      -0.33790515260832      -0.92406827660793
H         0.73231457881045      -1.26839625158002      -2.02535656051476
H         1.14200199368200       0.40981067122057      -1.63925721237125
H         2.72986364259332      -1.93886528556005      -0.51452368838755
H         3.07551790789508      -1.23852114935970      -2.09960692862712
H         3.08320557813422       0.34620669040565       0.52508322346614
H         3.46226331378291       0.98381841085007      -1.07731696394685
H         5.39732149772377      -0.58226332133712      -1.25096967271635
H         4.99433008338411      -1.26238416119447       0.33320823350383
H         5.77445838848854       1.65373174497235      -0.19190543089587
H         5.35728526475618       0.97504158158118       1.38908360500801
H         6.80874057710280       0.41550794866258       0.54022994076389
C         2.06936929554176       2.00917431610606       4.10503845256985
C         1.13712502644267       1.47617587209541       2.99552953022518
O         1.63806135152867       1.37308474186812       1.85008580497120
O        -0.03480692757588       1.19417583386709       3.31383317562919
H         1.57857716352021       1.95341506549837       5.07453046940248
H         2.98764940401659       1.42375763850554       4.11626725976190
H         2.32208982560704       3.04488031340593       3.88058371344084
