29
C9H13F3N2O2 optimized with ForceField in AMS.
N         1.10652407754277       0.35524209873800      -0.36935254295636
N        -1.11632260479475       0.33223583428582      -0.31767382305303
C        -0.00991614087074      -0.24865723476303      -0.82113109480018
C         2.48686799737833      -0.01704011469817      -0.66859563038343
C        -2.50138660434164      -0.06180786946825      -0.56032076730492
C         0.69269324084554       1.35631802087409       0.43411297453604
C        -0.68679477396777       1.34217474726423       0.46587989786953
C         3.13919811164543      -0.65980832893813       0.55026759144227
C        -3.08285782895393      -0.74560234174799       0.67098974395258
H        -0.01659971908999      -1.10469646442715      -1.48441519999629
H         2.51127077924089      -0.74075615330715      -1.51251666376495
H         3.05974848736594       0.88584924867570      -0.97124924686624
H        -3.10502810079364       0.83647766803323      -0.80953034386057
H        -2.55218013185932      -0.76383106084080      -1.42118743482977
H         1.34394518034055       2.04192650086380       0.96052554522554
H        -1.32734990268001       2.01565440519843       1.02023667726772
H         3.15429590787275       0.05316085739351       1.40147036870174
H         4.18311628686943      -0.94915610419304       0.30737671687309
H         2.57442100648668      -1.56947104750772       0.84625028933833
H        -2.48665118362736      -1.64918185783781       0.91971045872419
H        -4.13064508039022      -1.05149111097139       0.46815910421906
H        -3.07360170741910      -0.05152695200345       1.53773350123759
C        -2.40870827591131       2.07197863381253      -4.03543068325758
O        -2.17117926335537       2.94071802719545      -4.85973044335357
O        -1.61797024058995       1.87000937824630      -3.12827290251660
C        -3.66350300082185       1.25644070304717      -4.13054302455855
F        -3.33976620433723      -0.08702971601241      -4.17880745015137
F        -4.37395542228909       1.58991251814252      -5.27061758307666
F        -4.45459477969504       1.49525205384570      -3.02241957655764
