41
C11H22F3NO3S optimized with DFTB in AMS.
N        -0.35992533131592      -0.05927899423385       0.40300577949365
C        -1.72504794845470      -0.13305116782812      -0.23051827353500
C        -0.37005782532949       1.17885900311766       1.27981109232715
C         0.67391447733593       0.08982149345597      -0.68030369707507
C        -2.28773957107800       1.27709530954497      -0.14814328717801
C        -1.78053717331798       1.74574899229238       1.21162791505557
C        -0.11039646720023      -1.27346069268005       1.25456519640169
C         2.10970917648879       0.13178725074843      -0.16203162051098
C        -0.14590435212105      -2.58244272063278       0.48397832319488
C         3.05982742713196       0.63920025007399      -1.25141549269173
C         4.48295459824492       0.73579257971131      -0.70347518057131
H        -2.33734911929788      -0.81555030011514       0.36256290795971
H        -1.64160668797974      -0.51564148449797      -1.24744194450985
H        -0.07034123858672       0.90405806708760       2.29237952000232
H         0.35259745496975       1.88986405671791       0.88021083102745
H         0.54613369551516      -0.74442191086211      -1.37471910971169
H         0.42945283565634       1.01527286584771      -1.21019702219803
H        -1.88719965170404       1.90323899088487      -0.94970277709947
H        -3.37604099279270       1.27061243434322      -0.21329884216044
H        -2.40196548634683       1.33221066662500       2.00996954807046
H        -1.77004332638890       2.83216922459678       1.30170167005061
H         0.86418440315339      -1.14841336053840       1.72833788247587
H        -0.87419834192545      -1.26663539411465       2.03550214666239
H         2.18395816963983       0.78820149144473       0.70556608531153
H         2.42435701454659      -0.86447629430123       0.15466362543622
H        -0.01615004234555      -3.38850572395843       1.20576105666249
H         0.66588084901889      -2.64411699252042      -0.23915513650543
H        -1.09350684455034      -2.73269923478956      -0.03253969343624
H         3.03693183348201      -0.04140559879108      -2.10949482999334
H         2.73053910501240       1.62588488019686      -1.59598323855785
H         4.82516657272856      -0.24095656588504      -0.36136160252624
H         4.51872663930490       1.42857898627588       0.13754537927719
H         5.15935348609447       1.09243441207157      -1.48005451863509
S         2.27754632499397      -0.16594623543307       3.77225209351925
O         0.83117358469850       0.02065170196372       3.84900518328989
O         2.69581869104383      -0.85286256461279       2.55540220455482
O         2.91495824757352      -0.59651267699879       4.98384384045979
C         2.89515039366301       1.56467001339718       3.47456504737897
F         2.88089273575839       2.31325197915719       4.56609837735670
F         2.09615599839088       2.16169401126582       2.56296880296637
F         4.12448870168953       1.56935544017271       2.97156198116077
