35
C11H20N2O2 optimized with ForceField in AMS.
N        -0.02445231265334      -1.33672403379318       0.33301484429479
N        -2.04970982713592      -0.42653161625983       0.22265544920133
C         1.32743103301795      -1.64062064561027       0.79827901093873
C         2.37540142439098      -0.86419875993380      -0.01059471805066
C         2.22049071158020       0.65466164342241       0.15731617230838
C        -0.95596884637915      -0.61503881492802       0.98549957435463
C        -0.55312152296734      -1.62920576417237      -0.87290921494126
C        -1.80905102133872      -1.06251048095792      -0.94211629053252
C        -3.20942270630181       0.39901139956814       0.54790549686565
C         3.31153509402133       1.40664969276377      -0.59863180953081
C        -3.16822900204923       1.70154249260129      -0.24425771279105
H         1.42860880279315      -1.38315097635203       1.87595577730534
H         1.51293481054799      -2.73130104064147       0.69457701798833
H         2.28847526014828      -1.13400628854163      -1.08584896632453
H         3.38539806202684      -1.17129856942474       0.33801939287489
H         1.23177764488412       0.98089485269440      -0.23221368949487
H         2.27909902586487       0.92242589845406       1.23475195034056
H        -0.82260783816029      -0.19954106498903       1.97631182540990
H        -0.05152119010043      -2.18400168574856      -1.65532706120999
H        -4.14185264793690      -0.15798435757747       0.31319033125793
H        -3.21292516354191       0.63919388165392       1.63375296195295
H        -2.48269358759633      -1.08739235981680      -1.78898938268289
H         3.27077072507652       1.16090569463092      -1.68138155163181
H         4.31228348621926       1.13806293561867      -0.19833603515047
H         3.16189346854581       2.50031045778707      -0.47702641997556
H        -2.23789351556860       2.26087042524668      -0.00637859016374
H        -4.04351393385509       2.33021437801965       0.02176970382516
H        -3.19686731277319       1.49060147821391      -1.33427184054566
C        -0.01432565572983       4.60616642110990       2.13079488733174
C         0.14329098842283       3.41782099516916       3.02495158178210
O         0.49353826037183       3.56895928174382       4.18404810958430
O        -0.07803583042667       2.29567623460844       2.60055237658442
H        -0.79346503770596       5.28136310306633       2.54301646757573
H         0.94888123644458       5.15492635224363       2.06736583464861
H        -0.31636468293582       4.29019729963093       1.10913322660035
