24
C6H9F3N2O3S optimized with DFTB in AMS.
N         1.55698714641490      -0.08977003381783      -0.12710801980302
N        -0.40463653412656      -0.97046729759764      -0.07816049236034
C         0.78706128448865      -1.03422618732585      -0.66291742746704
C         0.85186544745274       0.57073345114036       0.84122097036366
C        -0.38980133149284       0.01894671770709       0.86838340438208
C         2.98240210973306       0.02331701249822      -0.38836832219706
C        -1.50521090430155      -1.88328340810872      -0.34375112608326
H         1.07133398238823      -1.72765983183116      -1.43637152253551
H         1.28422987170654       1.36469269977282       1.42445933332661
H        -1.24744238331446       0.24105445673358       1.47869693123596
H         3.42197988398990      -0.96548495254271      -0.24523041541351
H         3.14291837787981       0.35451233686992      -1.41446285331163
H         3.41651686442795       0.73748844509247       0.30753275213276
H        -2.12255681603438      -1.95979606991090       0.54918277225926
H        -2.10202049825851      -1.50560785761060      -1.17526430670677
H        -1.08547332134160      -2.85840948288326      -0.59650458630928
S         1.83309267302774      -3.97164309055374      -0.00999623647832
O         0.75030528465449      -3.87512187380882      -0.98637821559585
O         1.83651226307040      -5.15594711275118       0.80127553125891
O         2.06470479047607      -2.71496097601885       0.70073569410348
C         3.33781400610045      -4.06774832729257      -1.09207754434949
F         3.47949852433434      -2.87189695405617      -1.70020674174469
F         3.23729264912930      -4.98947486888721      -2.03701081902517
F         4.44303469949530      -4.29229364661723      -0.39496518528177
