41
C13H21F3N2O2 optimized with ForceField in AMS.
N        -1.28094899081544       1.30669671146890      -0.24007899844483
N        -2.68086056597490      -0.38458113518096       0.11380721531187
C         1.10641415888449       1.93367524520764      -0.20441664667959
C         1.58918761768879       0.48526681631136      -0.36908021609871
C        -0.26207335423906       2.15058834238215      -0.86237850277991
C         2.97984377692657       0.28593587484048       0.24054145403686
C         3.44341082361136      -1.16562109189987       0.06887803479440
C        -1.81520143161791       0.17982071179879      -0.74984306514856
C        -1.82112370422194       1.45597726528978       0.98635821328677
C        -2.69200625835108       0.40813296919207       1.20475368131473
C        -3.39399986479933      -1.64709773490397      -0.06141076122294
C         4.84848581512931      -1.36865262829940       0.62601268548366
C        -4.85892900782808      -1.38633186070255      -0.38635874156652
H         1.83819615290698       2.62234850113650      -0.68069612507637
H         1.04327060641836       2.19049521320768       0.87552219281429
H         1.62038072464155       0.22993859652010      -1.45148339050380
H         0.87767955880325      -0.20310902340025       0.13659661124011
H        -0.55827067308497       3.21742374079557      -0.76375473684606
H        -0.18987002564818       1.92360888049211      -1.94928777780332
H         2.94808194676827       0.53676557565273       1.32371558225016
H         3.70089021690476       0.96888764371298      -0.25701867936009
H         3.44291222070822      -1.43654313238150      -1.00906994722775
H         2.74314469200383      -1.84634812285424       0.60062080331679
H        -1.55485970930499      -0.23722225602469      -1.71452141613265
H        -1.58459805345151       2.25335607621599       1.67859943131988
H        -3.26752598535294       0.22471506275174       2.10256048284407
H        -2.93795031606121      -2.22986427128736      -0.89173945467105
H        -3.31470590850245      -2.25385436386464       0.86671741248763
H         4.87271765946707      -1.12442807884235       1.70932575926408
H         5.57399195994456      -0.72384856354834       0.08577881153992
H         5.14978684590220      -2.42929222801361       0.49399947199291
H        -5.34410733660689      -0.82989953313089       0.44306126074815
H        -5.38680444663766      -2.35271056317925      -0.52968383236055
H        -4.93855172925552      -0.79158085312087      -1.32120381360376
C         5.27710572766941       1.10745201235437      -4.71192348782506
O         4.48600972624142       0.67952393685171      -5.53709729774146
O         5.90345411816787       2.12746356064387      -4.94926238419418
C         5.48148264814774       0.39135398243756      -3.41054598311241
F         6.80472420319241       0.00778687699726      -3.29635049243769
F         4.67827813010958      -0.73355570967378      -3.34321384644961
F         5.16254300721607       1.23806005264716      -2.36639811645940
