48
C12H28F6NP optimized with ADF in AMS.
N         0.52406722431240       0.09625254448540      -0.36028486044907
C         0.08179456126515       0.59357131802315       1.01835134561173
C        -0.59856141629761      -0.63150152846394      -1.07281810274398
C         1.69197628799829      -0.86787200956977      -0.15825311830612
C         0.94920514073289       1.28945875516132      -1.20082625936779
C        -0.64889184099161      -0.42086022908662       1.88294705839330
C        -1.88009281099980       0.15806822077845      -1.29836043884262
C         2.35930020223687      -1.38549802412566      -1.42068101259726
C         2.15796132587223       2.05746750811765      -0.69319026722936
C        -0.82628271932593       0.16317612548666       3.28694391542005
C        -2.93658843744193      -0.74625456893324      -1.93746137054075
C         3.50352214210632      -2.32233597636434      -1.01999551078560
C         2.46169134052526       3.22246046193793      -1.63555501942674
H        -0.54988205425847       1.47735576696246       0.83756059570191
H         1.00412657011838       0.90794548896216       1.52612494239310
H        -0.80242961978442      -1.53139051767242      -0.47372645618714
H        -0.18843711935322      -0.95867523709776      -2.03840501099511
H         1.29321693680212      -1.70046847042405       0.43622247362728
H         2.41291776200907      -0.34762149693997       0.48346095175082
H         0.07353849389184       1.95279290845836      -1.24592163513805
H         1.13055485439469       0.90109900963897      -2.21510837038859
H        -1.63411840605575      -0.67276782765182       1.45521394540243
H        -0.06009858302596      -1.34615195256129       1.96754280886026
H        -2.26561114717124       0.55414225063228      -0.34561954201502
H        -1.69504363218264       1.01846393614038      -1.96064717906131
H         1.64736461449053      -1.93263368237366      -2.06092025526967
H         2.76737460060126      -0.55240932695501      -2.01673004623855
H         1.97980052180673       2.43748942741100       0.32265445096748
H         3.03784512251551       1.40138058289649      -0.62119523166867
H        -1.37795615050759      -0.54219566060876       3.92547891301538
H         0.15449534630247       0.34836100940626       3.74954196049256
H        -1.39194791195823       1.10781437788629       3.25866134844164
H        -3.86623712539708      -0.18796333842310      -2.12228696823340
H        -2.58994175962514      -1.14760010895816      -2.90264953703953
H        -3.18095114391784      -1.59815750080060      -1.28413193212954
H         4.02988528088516      -2.69233333469831      -1.91145960204776
H         4.22403991080398      -1.80638424748487      -0.36925281929994
H         3.12258188983533      -3.19103851547889      -0.46197674766085
H         3.33952582534542       3.77873354720871      -1.27651622504707
H         2.68141811726875       2.87153467933058      -2.65653388381505
H         1.61783084079087       3.92847089445850      -1.69292420644254
P         3.60153372494896      -0.07004572399745       3.22885781900633
F         4.16198846292747      -1.24068427180351       4.22050183903922
F         4.90972223137643       0.87165011129116       3.50592326478256
F         4.36081645077193      -0.76938344218942       1.92106954803850
F         2.99314821628020       1.11048300228502       2.16937005586085
F         2.24508525699082      -1.00075989634776       2.88586337533058
F         2.77151495038717       0.64893169015122       4.45585426533115
