36
C10H19BF4N2 optimized with ForceField in AMS.
N         0.36378944996564      -1.61764997329451       0.32607320475889
N        -1.75792509419126      -0.95749485069827       0.27244115259260
C         1.76265783132778      -1.72776041722976       0.73320499676502
C         2.64225745163469      -0.74885729111247      -0.05588362789122
C        -2.99421904749390      -0.25997475140441       0.62008063804074
C        -0.61867604694507      -0.97922656720801       0.99040261671397
C         2.24765026673529       0.71203831002594       0.20781624337291
C        -0.17349331387078      -2.02075376291307      -0.84319860716979
C        -1.49136040945828      -1.61389701635401      -0.87518338720556
C        -3.21256248608373       0.96019237528700      -0.28401953360749
C         3.18753496321283       1.67963247240308      -0.50206709556214
C        -2.07590975033748       1.97596715550154      -0.16828650676821
H         1.86017669031434      -1.51965288156777       1.82149798651053
H         2.11383026125693      -2.76752062561012       0.55924699460559
H         2.55912624185654      -0.97024441812326      -1.14261733279630
H         3.70078791495351      -0.90666585911225       0.24652898170257
H        -2.96089046398148       0.06946196735874       1.68224960725227
H        -3.85080783932977      -0.95920172526689       0.51203638399938
H        -0.48961476873487      -0.48708709706662       1.94676996241337
H         1.21619840428007       0.89465788026852      -0.16199190592893
H         2.27258919573689       0.91948662617934       1.30007185713039
H         0.36016725845216      -2.54267562172296      -1.62669582952251
H        -2.19095203972748      -1.75605877671311      -1.68830824740307
H        -3.30591061481808       0.63271840241980      -1.34203677166075
H        -4.16537872338831       1.45324025950208       0.00610129673954
H         3.15713993586689       1.50491930434567      -1.59832093108311
H         4.22770266225225       1.55063243419270      -0.13345092896787
H         2.86557018244096       2.72336671526319      -0.30060650612600
H        -1.13531079098560       1.55101649694491      -0.57765041883218
H        -1.91722521128606       2.26443472465690       0.89302438722253
H        -2.32923653325140       2.88565133327376      -0.75237245630861
B         6.07255945782359       2.15301843472399      -4.27322770139170
F         7.35102987027768       2.40935113743158      -3.71036313810134
F         6.07556141190958       0.87577063434637      -4.89440935647774
F         5.77163242755124       3.14932828436436      -5.23958320698805
F         5.09160983103471       2.17820914520801      -3.24802162032772
