30
C8H12F2N2O4S2 optimized with DFTB in AMS.
N        -0.98355340244177      -0.49384616392021      -0.33863307064220
C         0.16751628899599      -0.84885763561104      -1.19417658208505
C         1.24312798754080      -1.68941956540989      -0.51669404079642
C         2.34820104753054      -1.99937317988867      -1.52599694500874
C        -2.01628605792091       0.11979423354302      -0.94353444307128
C        -1.06806801301105      -0.86056625711388       0.94532088764092
C        -3.16734513092321       0.42088692489020      -0.25106522314531
C        -2.20098207772291      -0.57879965671417       1.68661623241079
C        -3.27095152991490       0.06561098291226       1.08870182217316
H        -0.25040396898078      -1.40597819526200      -2.03907329656479
H         0.58540526649934       0.09149493355540      -1.56860178914815
H         0.80599293979502      -2.62870496900138      -0.16857501492591
H         1.66719005689512      -1.15334645952544       0.33853172229264
H         1.94058654879775      -2.55135170568670      -2.37194818098123
H         3.11399371305401      -2.60922375390518      -1.04856567072984
H         2.80830443918494      -1.08023478804660      -1.89172510941669
H        -1.90022736842742       0.34224561566943      -1.99687979146986
H        -0.23068013820572      -1.38742780429414       1.37854647705686
H        -3.98561885997988       0.90515973211340      -0.76798806161128
H        -2.24380321117225      -0.89742481951290       2.72005172041083
H        -4.17510856341615       0.27450792080856       1.64696721939337
N        -2.10961320191302      -4.71158787146130      -1.86340900086302
S        -0.64856849622774      -4.60120761738094      -2.49856016308364
S        -2.51673179774746      -3.57396102485217      -0.85989220846005
F         0.35355626251547      -4.77955028536767      -1.22901247364708
F        -2.61017203725454      -2.20145556163917      -1.79469657642409
O        -0.42586666921208      -5.74762363859981      -3.30597510612589
O        -0.29302360252207      -3.30933080606265      -3.01512833352742
O        -1.54005106685812      -3.19579905616587       0.13172193637350
O        -3.85975854225701      -3.76963993997049      -0.43047921142408
