51
C13H24F6N2O4S2 optimized with ForceField in AMS.
N        -0.22067841418621       0.31079724049684      -0.16609890966300
C        -0.90802660615714       1.29021597128622       0.73841039842640
C        -1.12333495024248       0.01811571559920      -1.32697918371939
C         0.12100176813556      -0.93382418526591       0.60857221497277
C         1.00928523931984       0.96396222963086      -0.73355844832762
C        -2.31447935852743       0.84882286020001       1.19089345011075
C        -2.51580116554831      -0.49448144192012      -0.92367291801956
C        -3.20455613373661       0.50534322355519      -0.00023351961229
C         0.90723333754869      -2.01496697974400      -0.17187810458234
C         2.13579284293701       1.27646815431939       0.28247992783689
C         1.21388577644530      -3.21278551152401       0.72392363078144
C         3.29088436630787       2.00659938950151      -0.39803770081142
H        -0.31575655418537       1.46590263937667       1.66167041828993
H        -1.01571600096634       2.27847858976775       0.23405121494841
H        -1.28286773456608       0.94367317173801      -1.92901607690732
H        -0.66392231574360      -0.70650476176618      -2.03068274172323
H         0.69786831889630      -0.66956409174536       1.52200178920042
H        -0.79296112596140      -1.42208259374335       0.99839101441860
H         1.44137607165573       0.33883583059524      -1.54670783671098
H         0.73267721995324       1.92287309149153      -1.23098465711028
H        -2.25707466363625      -0.01352437331896       1.88733807702334
H        -2.78256965177112       1.68332213390835       1.75530328859470
H        -3.13339922630675      -0.61687305085418      -1.83967538260149
H        -2.45539718714440      -1.49323987824839      -0.44445848780337
H        -4.16225671266278       0.07471576335619       0.36368110119117
H        -3.43718930170419       1.43359287607374      -0.56726565226304
H         0.31627811607811      -2.38771308076476      -1.03217611673786
H         1.87325354437133      -1.61962306941115      -0.54478435108881
H         1.76647242239840       1.92404103648484       1.10230474012433
H         2.54332382068021       0.34288009914946       0.72112559304167
H         1.77383891916296      -3.97711020048346       0.14478595311822
H         0.27127157839868      -3.67012763312580       1.09382838991623
H         1.83452570057317      -2.89905936175163       1.59018145514012
H         4.09576611273501       2.20211806903994       0.34174314228192
H         2.94396361678955       2.97891200530741      -0.80857130223807
H         3.70808008610399       1.38808329542601      -1.22118037414053
N        -5.46728782215163       0.89942551761424       6.08110073077220
S        -4.78917123597354       2.19966584322885       5.34904499003330
S        -4.75687102835252      -0.57782681648460       6.10739889722438
C        -5.37689627538299       2.29503731319181       3.67092756234061
C        -3.94408951876674      -0.80118160234466       7.67588222169557
O        -5.20201276421709       3.44777536843317       6.07733323296517
O        -3.28944396627610       2.08856342472134       5.35308262799966
O        -3.75387133259145      -0.70973623603535       4.99453731436597
O        -5.81360565611089      -1.63590164907147       5.95825325857143
F        -4.78515580741737       3.36839301162707       3.03240914089456
F        -6.74853418225034       2.46271622373600       3.67251872414958
F        -5.06215552405912       1.12959865232867       2.99936316427721
F        -3.33097038740318      -2.03917547757817       7.70899793079295
F        -4.87699683371118      -0.72517749740662       8.69279502842110
F        -2.99349323168035       0.18616700980261       7.85292193363959
