35
C11H21ClN2 optimized with DFTB in AMS.
N        -1.13394415575752      -1.85083403317183       0.48274332845578
N         1.02017572675526      -1.90317328444426       0.44465324333290
C        -2.50170354197938      -1.41561783524694       0.74443175525860
C         2.41627397276368      -1.54024104497358       0.66297431705471
C        -2.87581006322247      -0.24457156385522      -0.17364023685904
C         2.82208712513510      -0.38457231755341      -0.26109881644726
C        -0.03359953844066      -1.32347448386132       1.01840118795974
C        -0.77485623908381      -2.73838213168167      -0.49178927301955
C         0.58321315831769      -2.77183688481526      -0.51445984772869
C        -2.27615069658623       1.08106296301898       0.30069426768575
C         2.30721534813579       0.96730933178940       0.23827942456248
C        -2.55359953599386       2.19354471845356      -0.70725200257543
C         2.60634967579874       2.07025207879873      -0.77420056768051
H        -3.15537616539055      -2.27186578972783       0.55878267249730
H        -2.57523689963529      -1.13425544794201       1.79929887874901
H         2.53821231446060      -1.26933836416139       1.71615892382416
H         3.01820444619130      -2.42813676981491       0.45278567850485
H        -3.96740389068647      -0.17398982950490      -0.19505873164379
H        -2.52061490070558      -0.46204047416571      -1.18411234428172
H         2.42460645145069      -0.57684223089031      -1.26083066150604
H         3.91467405914449      -0.37135579867193      -0.31638741343830
H        -0.00229582445547      -0.60641689830629       1.81897541043991
H        -1.50175134601104      -3.25831177282994      -1.09004736688074
H         1.26446137273333      -3.32105432682562      -1.13962951840221
H        -2.69007660616034       1.34402502035401       1.28157803469919
H        -1.19346980628919       0.96778292859320       0.40610495880686
H         1.22420544654282       0.90866550110694       0.37966716917169
H         2.76627005913660       1.20385557441571       1.20569432787058
H        -3.62637313471424       2.31248932275899      -0.86761046898417
H        -2.07716044130066       1.95514466310694      -1.65784639034399
H        -2.14776461204645       3.13609985379389      -0.33937779401894
H         2.08450333947053       1.86239703511908      -1.70794221420380
H         3.67750331674267       2.13454826744764      -0.97212508141128
H         2.26312854843938       3.03008630578710      -0.38775591034532
Cl       -0.04360836885944      -0.10475393999986      -1.92031127930270
