38
C12H19F3N2O2 optimized with ForceField in AMS.
N         1.91679799727851      -0.90786473134878      -0.15749317463314
N         3.14810168252511       0.94105601954428      -0.08296809567760
C        -0.36014098022162      -1.86147407525297      -0.00070534293653
C        -1.04279993725165      -0.52057363275660      -0.30736908867661
C         1.02674101748012      -1.95773229801526      -0.64943261797021
C        -2.46121168576697      -0.47260564337287       0.27136432274837
C        -3.10443663093934       0.89728443820791       0.02433862930196
C         2.37683863366149       0.15036973874100      -0.85346721286812
C         2.41985074429667      -0.78605307247612       1.08742171487707
C        -4.51773844918710       0.95764963133779       0.59565621480839
C         3.18212227534320       0.36389203215616       1.13372260791074
C         3.79683442160932       2.18644103179922      -0.47204668306957
H        -0.26474688192107      -1.99269554806020       1.09917593965995
H        -0.98756538262401      -2.69178774571738      -0.39239963320287
H        -1.09204104940168      -0.37305098477426      -1.40832453518051
H        -0.44399913372420       0.30657090673681       0.13266184709996
H         0.92148547646590      -1.87594510673183      -1.75070423491520
H         1.47253378790738      -2.95133527121235      -0.42830521262166
H        -3.08024415314457      -1.26365615447562      -0.20672864277638
H        -2.42070213868860      -0.66749464657021       1.36583954640331
H        -2.49063415034567       1.69072480130137       0.50406504267814
H        -3.14878260879884       1.09989652987308      -1.06801891756024
H         2.14003865958083       0.34955305255700      -1.89124746837948
H         2.24041060917113      -1.47670956511857       1.90093235898661
H         3.71300819607532       0.75424165728196       1.99211299574965
H        -4.49925028328737       0.77796534362297       1.69168888191686
H        -4.95054949193394       1.96306309966765       0.40857991320386
H        -5.16387054802568       0.19649826939131       0.10893981375391
H         4.89489336201266       2.09291589859880      -0.33840041196114
H         3.58210454988516       2.42174128434814      -1.53646565475877
H         3.42037602409629       3.01658000761965       0.16188473343596
C         0.15672016791259      -2.91946630627344      -4.25361414397891
O         1.03754765137662      -3.70264412941861      -3.93570950217391
O        -1.01272763378714      -3.24942127710145      -4.14072536655848
C         0.50177904557342      -1.55689323081400      -4.77516592766262
F         0.00180750957999      -1.41444914900068      -6.05614623654038
F         1.87443077730818      -1.38106394609733      -4.80315517075446
F        -0.05905933329041      -0.59264626389654      -3.95838931027794
