31
C9H20ClN optimized with ADF in AMS.
N         0.32098609011069      -0.09117998192647      -0.24160853854604
C        -0.67117953576408       0.72442628338317      -1.04161320090912
C        -0.35045954158156      -1.36739972982383       0.25645144901153
C        -1.95033856573907       1.03591032341813      -0.28102689447864
C        -1.63259882232150      -1.08657289686709       1.01822731536771
C         0.85024743667545       0.68215485376314       0.96204619888190
C         1.44786858136333      -0.46656816225431      -1.18984813006084
C        -2.62157615512582      -0.24555483008799       0.21425476639827
C         1.71460124197095       1.87579911822732       0.61572661263189
C         2.57279797524321      -1.27463910052835      -0.58138077083717
H        -0.90385085820813       0.11913578250599      -1.93399178889537
H        -0.15569775965183       1.63791962829740      -1.37033301726236
H         0.38443659423761      -1.86220212191784       0.93831464252240
H        -0.54773168448036      -1.96943917626500      -0.64718955482764
H        -2.61283112829757       1.58712030024421      -0.96935685689585
H        -1.74237741411876       1.71605170387838       0.56255316588063
H        -1.38940770284743      -0.61364301702100       1.98484354531200
H        -2.06628605318744      -2.06768748672618       1.27149124003869
H        -0.03566962017336       1.00259420267225       1.52325566369048
H         1.37341069405303      -0.07719497303367       1.59659763487970
H         0.95908098878050      -1.02493401227087      -2.00486395675015
H         1.81436882821146       0.48283153669342      -1.60955862010053
H        -3.50883019808193       0.00056591523829       0.81955383980168
H        -2.97310368082924      -0.82672760368149      -0.65951878800014
H         1.95839037859664       2.37630441792827       1.56535915748577
H         2.66854801043550       1.58805750728676       0.15082961993156
H         1.21113272474631       2.61825757537346      -0.02376811035095
H         3.31027137938492      -1.45931814621484      -1.37799755443271
H         3.06866026030967      -0.75697512139183       0.25023787677669
H         2.23312726651101      -2.23584289225951      -0.17339090059477
Cl        1.75836150427781      -1.98688488063991       2.65317472603138
