49
C13H16F18NP optimized with ForceField in AMS.
N         0.18370212080089       0.19296214019733      -0.05143335856854
C        -0.36959399066740      -1.14676333362909      -0.34777262010902
C        -0.90352239730251       0.86054534915650       0.69984217441165
C        -1.87617464926724      -0.98763766959489      -0.52374126435431
C        -2.22494837373302       0.32712317978717       0.15669920844195
C         1.41551351966731       0.12354756590578       0.78962601262802
C         0.44293209610566       0.94097604173483      -1.31108648051621
C         2.59775326655663      -0.59448132241449       0.11890965818228
H        -0.19694349056988      -1.84321062896078       0.50566917454710
H         0.08976663791436      -1.60623186265226      -1.25133719026536
H        -0.85374076226095       1.97098460373605       0.62351320705243
H        -0.85950180307253       0.60308229243463       1.78430443936400
H        -2.42337952280821      -1.83768187208784      -0.06067938273551
H        -2.12951505732945      -0.93754217173984      -1.60568851120606
H        -2.64827870411295       1.04113224012860      -0.58366374594630
H        -2.96184057056724       0.17504217208939       0.97540513821197
H         1.74538544998334       1.15084230662123       1.06588206317751
H         1.20387002092830      -0.40811978808102       1.74543696571088
H         1.10979602347179       0.37212574667735      -1.99351718056569
H        -0.49770958972894       1.13207716734219      -1.87340781118043
H         0.91566389706867       1.92531793062898      -1.09796904381271
H         3.43039210562110      -0.68288876167127       0.84825052396939
H         2.31560645888728      -1.61718757880065      -0.20498150567312
H         2.97735941686658      -0.01713714739464      -0.74859008587878
P        -0.33077919362250      -3.48953850425876      -7.59833359545024
F        -1.69130071802633      -4.54653084299105      -7.64426186634982
F         0.88905963720003      -4.37898467322829      -6.76884709462900
F        -1.62190296870718      -2.82903580928445      -8.52366981830538
C         0.33643698438304      -4.72196223756084      -8.92779886761124
C        -1.03414228636375      -3.37945211010892      -5.79588798649651
C         0.43748946821126      -1.74457371149230      -7.80329396344546
C        -0.40179320526866      -4.72162082847216     -10.28424752572552
C        -0.16891419317567      -2.66036039144928      -4.72279358493966
C         0.75311547681174      -1.25583536466762      -9.22832014008676
F         0.24294219790635      -6.02114609059578      -8.44033780566468
F         1.67915297410593      -4.47577923465675      -9.16146118376143
F        -1.27144704322673      -4.66031140584872      -5.30645438734293
F        -2.25231818553462      -2.72027253921161      -5.84826434901670
F         1.61561948611792      -1.70575934399871      -7.07910475234956
F        -0.43483648024132      -0.81472408472712      -7.26629116993338
F         0.19040310734818      -5.65621568272809     -11.11535827139862
F        -0.32983928811218      -3.49673587571989     -10.90761598902240
F        -1.73091269413636      -5.07145826162283     -10.13046702916933
F        -0.68539844970219      -2.95377876343490      -3.47280246340242
F         1.14912041852093      -3.07451212536606      -4.73639502809662
F        -0.20978327298016      -1.28835707148805      -4.86548026688684
F         1.65376922568127      -2.08248888730155      -9.86533324506529
F         1.32727483766844       0.00064727829671      -9.14499762781281
F        -0.39902781910904      -1.13506045349622      -9.98228283692248
