41
C13H21F3N2O2 optimized with ForceField in AMS.
N        -1.12644793348600      -1.73411137158620       0.23073078825706
N         1.09563004991680      -1.72011793264652       0.30890469881349
C        -2.51879688115171      -1.45857358244298       0.57896708041524
C         2.45644170921286      -1.42830317236023       0.75675719167716
C        -3.02150579333327      -0.19250889637216      -0.12800852449578
C         3.05992010046512      -0.25861392445990      -0.03335078716860
C        -0.04223710202127      -1.47353491547108       0.98645137823618
C        -0.66009991927340      -2.17113587344272      -0.95647874228968
C         0.71885539284364      -2.16600629480106      -0.90689607644506
C        -2.26312223111455       1.06006430870507       0.33504036467990
C         2.24381540623617       1.03107970126563       0.13643889785873
C        -2.84281076336337       2.32336302360218      -0.29244585062163
C         2.90587247573088       2.20244240392892      -0.58116620133453
H        -3.14915495790049      -2.32406893608258       0.28113479978896
H        -2.61963185160258      -1.33417109002151       1.67980175059293
H         2.45609701683762      -1.17761283200233       1.84065067875331
H         3.08854574047000      -2.33188612320408       0.62049501365092
H        -4.10312801533605      -0.07136987537780       0.09815657708724
H        -2.91265338578694      -0.31226454168044      -1.22825968335363
H         3.11467850272918      -0.52778043334718      -1.11080557326372
H         4.09689864631862      -0.08839240969996       0.32926597702583
H        -0.08033618617353      -1.05213527186062       1.98344019772166
H        -1.27459892417193      -2.43773136517240      -1.80643075270967
H         1.39423335513749      -2.42746481467938      -1.71098326546849
H        -2.32081426442905       1.14931638344795       1.44164356148678
H        -1.19455858480981       0.98230123917301       0.04425100369666
H         1.22712392462064       0.89070836993170      -0.28775423921185
H         2.14481129252237       1.27733580622513       1.21601388127859
H        -3.90002009729726       2.45805848742289       0.01975861992545
H        -2.79022458374226       2.26362404607992      -1.40031085160777
H        -2.25855774627272       3.20595639853923       0.04361073290880
H         3.02760819780219       1.97283996171732      -1.66094362303939
H         3.90093553079775       2.41483860316859      -0.13655087204418
H         2.27031278942473       3.10746069375467      -0.47946674443490
C         5.20587144744011       4.22660539553192      -3.29220220455600
O         6.05233176715443       4.72865075683152      -2.56988757032266
O         5.39020962122739       3.11158321532311      -3.75261466952169
C         3.94509121009666       4.97036187928859      -3.61753827052971
F         3.84507322540207       5.13261184627967      -4.98690271297802
F         3.94633865580264       6.21603836131282      -3.01430075821851
F         2.85465384847683       4.25196835528128      -3.16472256843937
