28
C10H12F3NO2 optimized with ForceField in AMS.
N        -0.48933427727204      -0.00007050576593      -0.40843388985140
C         0.93971054208097       0.00386739564512      -0.74523147328891
C         1.78116262020264       0.00727170503650       0.53487855029479
C         3.27388490739624       0.00912435689813       0.22041804424835
C        -1.15214491405766       1.18584713758417      -0.24592407497849
C        -1.14189573038361      -1.18945390490784      -0.22923740909899
C        -2.50290870338785       1.20083885812208       0.11061805756247
C        -2.49378346359632      -1.21050005813515       0.12399205310183
C        -3.17494120376104      -0.00632721584616       0.29709328701798
H         1.19135334981701      -0.88952341042512      -1.35984391590356
H         1.18710996221899       0.89780096135963      -1.36081639276587
H         1.54015280832075      -0.89365981173820       1.13981178557046
H         1.53716259488030       0.90927871967819       1.13683861582644
H         3.54725656113304      -0.89776577080358      -0.35987113458757
H         3.85213567937210       0.01088457643625       1.16848477823853
H         3.54456364277920       0.91525322816137      -0.36225153108889
H        -0.63655755422560       2.12768200195082      -0.38571002372797
H        -0.61664090901108      -2.12913287210040      -0.35275769289703
H        -3.02200905923440       2.14110779898684       0.24327141231133
H        -3.00667039337331      -2.15287264324397       0.26544629391421
H        -4.22090657930434      -0.00852818381405       0.57559964079193
C         1.62154028033161       5.03841152501133       0.29617119764279
O         1.49787239290605       5.78300193824900       1.25564280136621
O         1.33255743206055       3.85793566519787       0.40788723301896
C         2.12766071713448       5.56279306032912      -1.01501740722751
F         3.28847058310459       4.89632249016296      -1.36188897959230
F         2.39588374211071       6.91823111514314      -0.92772826620497
F         1.17479455795802       5.35535196492790      -1.99544171809285
