55
C17H32F3NO2 optimized with ADF in AMS.
N        -0.45371573696219       0.60750994028551      -0.21683919635861
C        -0.72888404442052       1.43555658333037       1.03269512959954
C        -1.71511447865868       0.50072251793470      -1.04510339172562
C         0.58001167752898       1.33217448527637      -1.06837543640097
C         0.05980465107049      -0.75799248030732       0.21795690781951
C        -1.91952994281490       0.92439022107537       1.82675554654540
C        -2.89454389096131      -0.05545913883009      -0.26661137040082
C        -3.17811149546587       0.79374838458868       0.97202386447040
C         1.96255936555114       1.43020983008618      -0.45947181887894
C         0.45939098335299      -1.69389101637940      -0.90565983324942
C         2.87228063977836       2.31866349557990      -1.30645439611579
C         1.07901446548573      -2.95609531348480      -0.29557043071524
C         4.29079146021256       2.36765999320006      -0.73825976783192
C         1.58188192307852      -3.93295189662899      -1.35430046482621
C         5.19864491067689       3.32168196111220      -1.50788779584397
C         2.22701190329243      -5.17153850228274      -0.73718270726642
H        -0.91371582127271       2.46090022176416       0.67270983743541
H         0.19097228604621       1.38752590412591       1.64272308484102
H        -1.47143743612459      -0.11380119618823      -1.92239829123439
H        -1.93528497568411       1.52372564222991      -1.39218202223384
H         0.15393692136547       2.33367588444663      -1.24784712532590
H         0.60445195297812       0.80439563290677      -2.03456253458496
H        -0.73424571107455      -1.20723710372595       0.82656209680342
H         0.92430108041571      -0.57199061850425       0.88120173719413
H        -2.07707217656471       1.63647518248000       2.65352872608682
H        -1.66523765102383      -0.03475164513103       2.30617371711871
H        -2.70507269079511      -1.10458647098407       0.01606595445142
H        -3.76390203041010      -0.06972614764829      -0.94493611556238
H        -3.50892939515979       1.79893972972883       0.64926035833938
H        -4.00252468287674       0.35686953939949       1.55718982146184
H         1.90685878875412       1.83876664494907       0.56146342675581
H         2.41434914818895       0.43171364852074      -0.34656645980158
H        -0.39870805129377      -1.97117566456654      -1.54501076458882
H         1.21689711134447      -1.21963443197248      -1.55229014134726
H         2.45953290024790       3.34559011637908      -1.34727618717007
H         2.90727765349435       1.95331348234373      -2.35148293110616
H         1.90960033611429      -2.64455836369011       0.36126310234818
H         0.33399282026611      -3.46109579731783       0.34832157650564
H         4.71706845259331       1.34869686439734      -0.74197871053524
H         4.24464093875719       2.66422287812494       0.32400606883303
H         2.31832004117290      -3.41643999315630      -1.99731237265580
H         0.74622874193661      -4.23409455882908      -2.01395629729068
H         6.21376299175503       3.33401589060512      -1.08332646061937
H         5.27959277893794       3.03003942641743      -2.56804521512839
H         4.80779859745253       4.35214207606308      -1.47371246513324
H         2.59249452075671      -5.86413772695696      -1.51039555172709
H         3.08032768850874      -4.88762069032295      -0.10143406881380
H         1.50760854723986      -5.71703658045003      -0.10532358927428
C         2.75525045525462       0.01143174589702       2.41919975119386
O         1.75626714293422       0.72602451231826       2.69509777468955
O         2.91405462934671      -0.86463526060909       1.53590203593604
C         4.02796113386897       0.32478759915770       3.26948642882924
F         3.73965530867255       0.78688309450961       4.52001602979204
F         4.76699778904189       1.30937989552802       2.64207532554692
F         4.85324179058993      -0.75037782499566       3.42093044444987
