38
C10H19F6N2P optimized with DFTB in AMS.
N         0.44056249817709      -1.97361292413524       0.69392629859050
N        -1.54650585415968      -1.36427521421910       0.12822780069355
C         1.81639886738337      -1.93687011263896       1.17804503497986
C         2.75171200058151      -1.35265249565908       0.11120314015047
C        -2.72888488280285      -0.54362215211031      -0.11298084852300
C        -0.44460763446505      -0.97983465620358       0.77322183489173
C         2.65246447301418       0.17202421559621       0.02295868952283
C        -0.09206968256349      -2.99135718211448      -0.04647273410370
C        -1.34566895864531      -2.60790678106153      -0.40181612151157
C        -2.57791815110983       0.26566675675391      -1.40824561222507
C         3.57337089563190       0.71642966426663      -1.06676864280160
C        -1.64852537594290       1.46338236730795      -1.24357009155343
H         1.84124464025766      -1.34082590622722       2.09521474789597
H         2.10296855538829      -2.96483746404554       1.41377448991675
H         2.51079492299759      -1.79813994970033      -0.85677634097020
H         3.77341008841523      -1.64077394535028       0.37624692786530
H        -2.86983224796764       0.11421872833357       0.74988640897849
H        -3.58274837884778      -1.22181535760837      -0.18705346425235
H        -0.31053767340772      -0.05211084104648       1.30041197801986
H         1.62104595571367       0.45474470638024      -0.20676902386594
H         2.91642085067151       0.61290893925664       0.99186203198236
H         0.46622998849433      -3.87933317477227      -0.28311990133659
H        -2.08860320611866      -3.10083654261160      -1.00272605860505
H        -2.20116119514971      -0.38916454950185      -2.19702527088980
H        -3.57548523224434       0.61081368990426      -1.69507158757948
H         3.29229481571439       0.30443375421035      -2.03521480883681
H         4.61135364012344       0.45163935377133      -0.86001752921828
H         3.49158863662205       1.80247147462423      -1.11147598256070
H        -0.65249636512358       1.13713984782916      -0.94747174626674
H        -2.03335609558268       2.15391430009103      -0.49082380281520
H        -1.56521682646020       1.98787157694694      -2.19446101100213
P         0.51588892926878      -1.53311923748989      -3.28501697511642
F        -1.01520758876686      -2.13194763361381      -2.98629195982921
F         0.41347272398058      -0.68282688683407      -1.83388526784802
F         1.14860947685207      -2.81573340259563      -2.42446585687206
F         2.02720385907450      -0.93894552212333      -3.50213563030563
F         0.60029187992000      -2.39065797453727      -4.66072871045824
F        -0.14176440362382      -0.25091985397217      -4.05694293694044
