58
C18H34F3NO2 optimized with ForceField in AMS.
N        -0.02096415917302       1.97574439904997       0.00719443336429
C        -0.69942034365420       2.88961020428476      -0.96338777280381
C         0.64068776600815       2.88310241231528       0.99342480376275
C        -1.03479637552264       1.12926011838168       0.71709426142093
C         1.00815472353677       1.15763626830865      -0.71355081550536
C        -0.24360811092884       4.30856944583183      -0.67965276670639
C         0.10104528078638       4.28274582354267       0.78203515167751
C        -1.77175552361818       0.11124166380694      -0.18589196622064
C         1.76965830578251       0.14958365502830       0.18029923271700
C        -2.88029248790868      -0.60317848097992       0.59705058760182
C         2.89038778946752      -0.53867267283744      -0.60872353345215
C        -3.62622983269260      -1.61096064085334      -0.28570444175371
C         3.65577587394252      -1.53731519325273       0.26817482197507
C        -4.69437693795159      -2.35743087786960       0.52241206202450
C         4.73475421558759      -2.26317223141080      -0.54424451962979
C        -5.44867707297051      -3.35892097899031      -0.34694180938376
C         5.50337837781113      -3.25839841523502       0.31996342145482
H        -0.49375326103244       2.63420046261064      -2.02828520110844
H        -1.80776913177663       2.87974626388049      -0.84885429550947
H         0.48568547108597       2.57427776398408       2.05264431922473
H         1.74358990814954       2.93757552646120       0.84101971466278
H        -0.56048717618222       0.57135992858863       1.55482290566407
H        -1.79495674990470       1.78757473216684       1.19908249485167
H         0.54283713973016       0.59815228108470      -1.55517472835844
H         1.75301221094307       1.83594545250121      -1.19174599056096
H         0.66484302216216       4.54157068006016      -1.27888522855768
H        -1.03895377586752       5.05345046074092      -0.90001080392289
H        -0.81779767060217       4.43218757055741       1.39130033632838
H         0.85222337621064       5.05688576332456       1.04254948561995
H        -2.21975307973021       0.62040013103582      -1.06445945571958
H        -1.06128806567408      -0.65776737543283      -0.55339460895176
H         2.21054034299858       0.66419379527113       1.05944618636630
H         1.07630675672550      -0.63529606110304       0.54676055677252
H        -2.42866259017255      -1.13596236341185       1.46253791865395
H        -3.60336219735843       0.14824533259537       0.98324469300029
H         3.59871637856499       0.22858854224683      -0.99105394005353
H         2.44779280273806      -1.07481950969741      -1.47672566002666
H        -4.11085124062516      -1.07220633485596      -1.12932995259708
H        -2.90253206362330      -2.34476767237024      -0.70354984948836
H         4.13309842683485      -0.99385113591626       1.11296675106118
H         2.94559666590756      -2.28485723235534       0.68488907261407
H        -5.42082099616058      -1.63018835398352       0.94541780043310
H        -4.21323723267635      -2.90384374401557       1.36255655788343
H         4.26180316927096      -2.81203635646508      -1.38741868320757
H         5.45038371815296      -1.52289770566901      -0.96303222268209
H        -5.96753295153430      -2.83543525392377      -1.17774618706948
H        -6.20750298589118      -3.88634245216712       0.26886366848327
H        -4.74786393028340      -4.11131669070415      -0.76677539649442
H         4.81330859310594      -4.02284203846652       0.73589749794041
H         6.26969435776364      -3.77197130273525      -0.29824144138787
H         6.01453014585332      -2.73195834454895       1.15368912359670
C         1.48298436655456       8.85702363968658       1.59546024261949
O         0.29157231937550       9.03476820432203       1.79557404166482
O         2.30306768983766       9.39880671324578       2.31936599337586
C         1.94396346942617       7.97932614256945       0.47016478458503
F         2.74183222485594       8.71080093691460      -0.38988018376617
F         0.86052874460743       7.48315739530695      -0.23394973279162
F         2.67642719123780       6.92339137524554       0.98026118380899
