46
C14H26F3NO2 optimized with ForceField in AMS.
N        -1.89088318299720       0.15594021892214      -0.04649954904398
C        -2.10983056555040      -1.03697676621933      -0.91866822657975
C        -3.01764593234943       0.12480311281514       0.93797775973772
C        -0.58688652566725       0.03494701184746       0.68333907093520
C        -3.51836292700674      -1.53930300034771      -0.67725338361422
C        -3.76897279715425      -1.18204710660581       0.76065074503778
C        -1.96695308431241       1.39946372857209      -0.88045955299779
C         0.66466378134041       0.05395815238731      -0.22695702151861
C        -1.70714968020757       2.70461166749215      -0.10737586121999
C         1.93534514220116      -0.19244491048736       0.59602465025936
C         3.18397410537222      -0.20392959691240      -0.29469395178230
C         4.45316310610296      -0.38481657261962       0.54614627597026
C         5.70097952230252      -0.41558037432731      -0.33168270883724
H        -1.42150002941337      -1.87561638850954      -0.66158044583000
H        -1.96167081111758      -0.82594812603661      -2.00236747412083
H        -3.75295598805180       0.94423917697838       0.76531230910576
H        -2.68278392454618       0.22500617811617       1.99602608443590
H        -0.57761960814640      -0.91225306084182       1.27199213496057
H        -0.48599159763805       0.84924144233837       1.43479498948615
H        -3.60772896830869      -2.63169980756621      -0.85499746378902
H        -4.23271019964971      -0.99409905829458      -1.33330301661538
H        -4.85468409298759      -1.07182639890826       0.97271901825850
H        -3.33345138704328      -1.96121821338375       1.42557549074692
H        -1.24771638728751       1.35429927904627      -1.72731595036503
H        -2.97301352774741       1.47651589104645      -1.35394813328997
H         0.58537888513802      -0.72548055864917      -1.01344535287137
H         0.76280339479714       1.04193473803800      -0.72241511967640
H        -1.95419605998207       3.56834930998052      -0.75977809532770
H        -2.33096825310071       2.77306109231511       0.80661525800456
H        -0.63805015984775       2.79586278057128       0.17312431305467
H         1.85324403491727      -1.17010857464328       1.12005099532971
H         2.03483752468410       0.61039639939782       1.35970462457915
H         3.24860168107172       0.75475127339817      -0.85533983815428
H         3.10371143270300      -1.03750865700674      -1.02706255960741
H         4.54517319564668       0.45468254926022       1.26952573023265
H         4.39284902267376      -1.33673233179957       1.11750091857322
H         5.79608818491525       0.53289662920966      -0.90196199006233
H         6.60078554036222      -0.53657350476713       0.30766863050306
H         5.65274651056846      -1.26855658519588      -1.04156373873742
C        -3.15886971095043      -5.70693402916924       1.37986503789726
O        -2.71089861884454      -5.53995914749517       2.50299620667698
O        -3.08081760725478      -4.80674934904328       0.56007817924276
C        -3.80063530274503      -7.00799808910843       1.00041672555187
F        -5.11470178045267      -6.78549682479156       0.63332321580528
F        -3.77349285143217      -7.89291383833670       2.06416300410046
F        -3.11936115050391      -7.56485622006629      -0.06573873574474
