56
C16H19F18N2P optimized with ForceField in AMS.
N         1.91390049548086      -0.93456557033740      -0.22869482351557
N         3.14307373881889       0.91386282897047      -0.10806674598185
C        -0.37035931958883      -1.86609038200414      -0.06554440264261
C        -1.04338899752550      -0.51219588615418      -0.33440881118382
C         1.00582707942908      -1.96140116854319      -0.73801078476245
C        -2.45295403453362      -0.46323067601774       0.26527498088184
C        -3.09537753333899       0.91001178779671       0.03664552563077
C         2.37569816955653       0.13951635467036      -0.89888835773537
C         2.41216137162579      -0.83920003960722       1.02108816205055
C        -4.50519190636903       0.96489061633283       0.61699591840275
C         3.17382599193206       0.30971204108512       1.09566000274606
C         3.76868567754023       2.18210131652154      -0.45770298666556
H        -0.25956384586828      -2.02000172732933       1.03007670905157
H        -1.01222183724061      -2.68251844478371      -0.46281336584156
H        -1.10508055010426      -0.34149365509274      -1.43198446997662
H        -0.43075913643541       0.29981860430111       0.11518892530404
H         0.88579283398706      -1.85389057389547      -1.83872666696262
H         1.44304164751069      -2.96481625393947      -0.54484541850937
H        -3.08162519695425      -1.24924911802654      -0.20875095223268
H        -2.39648789856548      -0.66525034951953       1.35799821534499
H        -2.47719501325427       1.69773096410002       0.52065323279395
H        -3.14667925610992       1.12380978669799      -1.05354780774645
H         2.13315873832017       0.36768851533914      -1.92990022165231
H         2.22109387901109      -1.54165165001585       1.82207964098304
H         3.69719041012121       0.68426330626445       1.96607340955556
H        -4.47985526360556       0.77556142116762       1.71141863202004
H        -4.94004188004924       1.97136434551792       0.44077618031289
H        -5.15342236434176       0.20698546973432       0.12746230453632
H         4.86154911304132       2.12109973190642      -0.27869136381811
H         3.59028858206080       2.42333022155731      -1.52759618235206
H         3.34217628293444       2.99297219114563       0.16961128384583
P         9.08109640441201      -0.22516047360646      -1.06251572222747
F        10.27232929519351      -1.43673230842448      -1.33771200086056
F         7.50196913622217      -0.89624339896570      -0.89981104965685
F        10.55402470460218       0.64361529713779      -0.87403988437176
C         9.15885913559528      -1.06585212738503       0.68362929519287
C         8.97946060237573      -0.67217445964860      -2.94311013899724
C         8.46350246449720       1.60634701047453      -1.02123878469907
C        10.52962124619848      -1.08558688590839       1.41359861911639
C         7.84289730160373      -0.02324739282770      -3.76052574972336
C         8.45974702665874       2.31333476119893       0.34856723084006
F         8.76714315132785      -2.39358217806295       0.56336048562892
F         8.25186254720664      -0.45845828097244       1.52892957675516
F         8.80778245330932      -2.04589605195243      -3.08717357808863
F        10.17353656446674      -0.31674627200229      -3.55477389524327
F         7.15461791299060       1.64145304481674      -1.46563451784975
F         9.21384290950017       2.37813680577844      -1.89856751122930
F        10.34302343157295      -1.58155364203070       2.69209846388511
F        11.08309499881756       0.17177010529902       1.53033327970606
F        11.43306795829034      -1.91555498043075       0.77436753050849
F         7.83400331966494      -0.58130089461869      -5.02717506862975
F         6.60671091204451      -0.25971318605825      -3.18833222649225
F         8.03856944379504       1.33527494321111      -3.91204754925285
F         7.42739981205952       1.84362415929871       1.13856208074987
F         8.24864387123009       3.66717887115765       0.15300255258575
F         9.65720726177944       2.16661832097945       1.01221392777226
