46
C14H30ClN optimized with ForceField in AMS.
N        -0.06014775437769       1.46874796689868      -0.04645161233256
C         0.52689132969273       2.42826272016869       0.94005357231496
C        -0.71603505261837       2.32960977364190      -1.07822178641819
C         1.02456226074835       0.66250602500412      -0.69456636322506
C        -1.07935972348566       0.61335812695219       0.64303833457488
C         0.00927379861784       3.81737794865858       0.61600590173627
C        -0.25697276472326       3.75841722266652      -0.86112787151584
C         1.77224426206687      -0.30256890216948       0.25687798650732
C        -1.77740610417700      -0.42579441322785      -0.26687305794292
C         2.98820412180097      -0.91809422414969      -0.44849456867838
C        -2.87869915756925      -1.16331611096807       0.50633357649049
C         3.72069063579389      -1.91034101990784       0.46175175003235
C        -3.59821477494016      -2.18234787442845      -0.38436682483089
C         4.92715568858705      -2.51961136044347      -0.24813195625144
C        -4.67066275871962      -2.93650572647438       0.39734365719755
H         1.63838071826913       2.47521744346629       0.87436106341277
H         0.28705351125036       2.17363548748237       1.99837794779141
H        -1.82645096369867       2.33078725210326      -0.98170723346849
H        -0.49095390947962       2.01417336871977      -2.12303949719903
H         1.77028989585140       1.35193313282747      -1.15452656442720
H         0.61584252667992       0.06652806538767      -1.54034790099738
H        -1.86433854371201       1.26544856002955       1.09227432821147
H        -0.61770658969634       0.07416631361543       1.49972536554340
H         0.74710753965960       4.60969178097962       0.87033896655579
H        -0.94277468277693       4.00147316354881       1.16037024474712
H        -1.02907561426359       4.49678551753126      -1.17011028585854
H         0.68610297997993       3.94296379605565      -1.42205020247415
H         1.09545389456289      -1.12514900523712       0.56920858110049
H         2.11536741410741       0.23011518769390       1.16834138726376
H        -1.04348788294264      -1.17663679834978      -0.62507490561958
H        -2.22835878589605       0.06993884900210      -1.15178004283739
H         3.69021841437882      -0.10779529154208      -0.74512896284468
H         2.65007852716050      -1.44551914957825      -1.36777825313383
H        -3.61938363131621      -0.42683641818831       0.88886557425208
H        -2.42452415323374      -1.68991388465582       1.37473510984539
H         3.02887756066134      -2.72785893111390       0.75975982740874
H         4.06891638154655      -1.39116729412252       1.38101101395001
H        -2.86510839988043      -2.91493127659345      -0.78634633732601
H        -4.07834474059866      -1.65909077989691      -1.23971918033577
H         5.43330922830688      -3.23996790837366       0.42838665420403
H         4.60500103923733      -3.05963525767838      -1.16395733284462
H         5.65230955103380      -1.72592100580345      -0.52796436182580
H        -5.17666115860011      -3.66375272461745      -0.27188311981202
H        -4.21302753861538      -3.49215711722906       1.24344877109554
H        -5.43073807797967      -2.22929590427843       0.79257083904468
Cl       -2.00111119269254       5.09134469809398       3.79105815451923
