49
C13H28F6NP optimized with DFTB in AMS.
N        -0.71510709104456       0.17669097177156      -0.45934346236269
C        -1.59178317469691      -0.18638950686004      -1.63305434223065
C        -1.38797745270791       1.26860501573130       0.31854674630754
C         0.56554255207586       0.71068176848272      -1.03839195371664
C        -0.46846025275734      -1.01554765994430       0.43863710845927
C        -3.01593063201155      -0.55415222903308      -1.24350369631993
C        -2.79494177680275       0.89138186864941       0.76915575505787
C        -3.67430739411388       0.55781575534635      -0.43449192413349
C         1.55942309743445       1.24591752640910      -0.00850338934772
C         0.63198391870441      -1.97308598811773      -0.01590304119610
C         2.92631338817168       1.44864573813966      -0.67521831854365
C         0.54121163067742      -3.26690085567383       0.80359137891086
C         3.94530453443450       2.00293482677450       0.31763322195945
C         1.57831275893015      -4.28059084489589       0.32604983962963
H        -1.12065838744255      -1.01676746435946      -2.15604281091679
H        -1.60468235551262       0.68741242594199      -2.29070522562128
H        -1.42851730011392       2.14636936981105      -0.33338560261625
H        -0.76334279918722       1.49894762904665       1.18368099923068
H         0.29114490875320       1.51277958648365      -1.72843433465818
H         1.00865487191315      -0.09937514937764      -1.62072789508188
H        -1.40965003738222      -1.56309984091900       0.49457304644229
H        -0.23523622871230      -0.62607079714130       1.43334714644213
H        -3.03407608718789      -1.49062504255503      -0.68356208101700
H        -3.56043201027904      -0.72553069036108      -2.17502806626021
H        -3.20434141260505       1.74674237976996       1.31346155656418
H        -2.75814783348134       0.04286590111329       1.45737811865590
H        -3.80101892110526       1.45176250998953      -1.05429137928642
H        -4.66065065753801       0.23696125891932      -0.09219748054145
H         1.66719546982381       0.55271067248882       0.82860253842214
H         1.20903524479212       2.20246903937700       0.39031250616989
H         1.61954817401499      -1.52618095062059       0.12807882858399
H         0.51400266692811      -2.21388440375168      -1.07158020096375
H         2.82029620916957       2.13985267299630      -1.51754160072210
H         3.28216270494156       0.49108527431701      -1.06828539241437
H        -0.45843780935501      -3.69500844230867       0.68798018356255
H         0.69572813799519      -3.04096009494644       1.86499001737448
H         4.07701039442631       1.31530037524634       1.15383799729308
H         3.61565788414725       2.96675862638550       0.70756956702277
H         4.90689444855863       2.13785630829304      -0.17677872668333
H         2.58501084860172      -3.86408938775784       0.38984157215566
H         1.37748225467606      -4.56033552056777      -0.70783524772796
H         1.53023215605289      -5.17596449551845       0.94551008191649
P        -1.38841706920205      -3.66537159567454      -2.92824740610545
F        -2.63243487355724      -4.70106588825405      -2.77608099947363
F        -0.32815499567128      -4.78098379553920      -2.36823301066322
F        -1.12355265346148      -4.10798716641351      -4.46699532502715
F        -0.12521497963395      -2.55267876521207      -3.02974558438420
F        -2.42032857354632      -2.46183412168425      -3.42090022861451
F        -1.63865275881339      -3.14795946479663      -1.33507238363082
