40
C10H22F6NP optimized with ADF in AMS.
N         0.15719712577704       0.33063215662027       0.22443590075481
C        -0.94640721148076       0.95591011646424      -0.62248725549542
C        -0.43056430876112      -0.84279433634416       0.99106998772997
C         1.21572850757629      -0.17515081108942      -0.73203945939250
C        -2.18585455835881       1.33428072328078       0.16857179383979
C        -1.65417160772851      -0.47215302328856       1.81342275210955
C         0.74354413466506       1.34042400315384       1.21087594157899
C        -2.74652260516444       0.13992647963434       0.93827545781912
C         2.44487344251826      -0.80198880694592      -0.09276940352189
C         1.52398221801326       2.46939104694617       0.57643834280207
C         3.42705021968287      -1.24485648042261      -1.17835513467164
H        -1.18137737986969       0.19529931533252      -1.38615462189118
H        -0.50073199911744       1.82642090579580      -1.12328894190383
H         0.37354132535349      -1.24213939177774       1.62330865890476
H        -0.68755992595640      -1.59561923442361       0.22620342448472
H         1.50237384760869       0.68605023568084      -1.35376752766529
H         0.71099504113239      -0.90458404304985      -1.38543517927126
H        -2.92143526973565       1.71560810981081      -0.56015592764228
H        -1.97074867942784       2.16764883837698       0.85437888288317
H        -1.38853150517928       0.22724792589462       2.62154926472120
H        -2.00450682159242      -1.39990779482253       2.29617792299842
H        -0.09175635726391       1.74172676924378       1.79222031757482
H         1.37166492197041       0.75315006381755       1.89602863777198
H        -3.58808934590518       0.46703925745519       1.56714301478597
H        -3.13349650880297      -0.62236151965915       0.23475664067377
H         2.94088256444068      -0.08121413380412       0.57532507269167
H         2.16051748890762      -1.67337966352742       0.51829208115261
H         1.79133507598801       3.15210258301981       1.39688725112798
H         2.44520028077209       2.13923843747873       0.07468887827533
H         0.91343205998073       3.06336868963562      -0.11730650646467
H         4.31703076398753      -1.70464717105615      -0.72585086486315
H         2.97220383621513      -1.98478490658426      -1.85506074191390
H         3.76237529608008      -0.38955708535463      -1.78515240153671
P        -1.11534927946303       4.02881091201022       3.27246740331836
F        -0.90825308260893       3.98195663329874       1.60086921859871
F         0.43536650295662       3.42610412482249       3.43861816316045
F        -0.53825445531923       5.55881060214122       3.30062241629455
F        -1.30895842172774       4.00736699970731       4.89614590671203
F        -2.65351579967808       4.55430485514553       3.05080249250967
F        -1.66624755808481       2.43082246268274       3.18817560835927
