23
C7H9F3N2O2 optimized with ADF in AMS.
N         0.49391386345084      -0.77347859489860       0.51964577600637
N        -1.46540983400548      -0.08446674369779      -0.06803846341875
C        -0.77300224361227      -1.16911753211378       0.31720574291636
C         0.60624763155908       0.58217295243476       0.26398722488047
C        -0.63207752069962       1.01569165624467      -0.10994239254342
C         1.56897845192924      -1.65130122324782       0.97576588271912
C        -2.88797922717577      -0.11428236615607      -0.40811057269802
H        -1.28512631231170      -2.19093380308444       0.43400201446347
H         1.54268560904046       1.11692121982691       0.36737318388296
H        -0.98266271665527       1.99914291980733      -0.39902310757013
H         1.26346023019600      -2.68864980378529       0.80775112652048
H         2.47580320763515      -1.43143708618555       0.39933491877825
H         1.74650978412466      -1.49100424372118       2.04710626076501
H        -3.42022521070908       0.61883380949751       0.21076397007166
H        -3.00891049605566       0.12789590798965      -1.47191298870065
H        -3.26016397054739      -1.12854113215138      -0.20565776736256
C        -2.36333122667397      -4.42682066954260       0.79166940096962
O        -3.18352012754703      -5.33622955131835       0.89493044514211
O        -2.49574868607923      -3.20525441485444       0.43984846377799
C        -0.87416098171531      -4.77831692532629       1.14805832714692
F        -0.02218621965833      -4.52092319542448       0.08167945952344
F        -0.67010088204528      -6.06252147522894       1.50722544913563
F        -0.40336242414406      -3.98998018096384       2.18776450559369
