40
C10H15F6N3O4S2 optimized with ForceField in AMS.
N        -0.69424335834850      -0.89921177169762       0.42049576633905
N         1.49463465576052      -0.52445211190125       0.33685918788418
C        -2.10085457407500      -0.78792024290498       0.80124041200696
C        -2.90496026568247      -0.04023503391308      -0.27022976502303
C         0.34566702433343      -0.25575794324304       0.98558470113131
C        -0.18516122242298      -1.60399766575952      -0.61035485766433
C         2.80729420680101       0.05139858943815       0.61143266771659
C         1.17330817608907      -1.36853892901934      -0.66436687916589
C        -2.39745159612766       1.38701840643165      -0.47768952468373
C         3.11935297723993       1.15681442746093      -0.39099600832928
H        -2.19280088800899      -0.25192445283746       1.77165827373631
H        -2.52347343286624      -1.80640965959765       0.93881941427805
H        -2.85678055200380      -0.59231567363129      -1.23361027321500
H        -3.96928787520649       0.00036048044416       0.04674970552271
H         0.26169507573560       0.42508723256509       1.82369922941017
H        -0.76081392700454      -2.22236347105475      -1.28676926199409
H         2.82949890503388       0.47588077464344       1.63877607560895
H         3.57881151017921      -0.74311412418930       0.55255496988034
H         1.86931993588784      -1.76672612317161      -1.39131138262241
H        -1.36611086931094       1.37707116085137      -0.89020916354259
H        -2.40184026579648       1.94373552000158       0.48349064237105
H        -3.05584267997336       1.91584730344141      -1.19849315304732
H         3.13764231438834       0.74840606704617      -1.42363812813835
H         4.11010973485203       1.60070691915816      -0.16227880075355
H         2.34819910652274       1.95416798617460      -0.32857782285950
N         8.30090328279863      -0.80864673641749       1.05507598787111
S         7.72571217123002       0.71340405715527       1.25388176256909
S         7.44924523406685      -1.98869256415639       0.30031005475852
C         6.87144312836178       0.82280820712977       2.81333679673973
C         7.96391244706403      -2.09085823837330      -1.40066556135521
O         8.87731101506388       1.67793857682275       1.26373276823469
O         6.78182265990104       1.07167324083108       0.14001105069243
O         5.97570185851634      -1.70063622311000       0.35533495299417
O         7.72731142866218      -3.30386867213408       0.97064588063238
F         6.41402793710842       2.11310323715615       3.00074743082283
F         7.73745598398593       0.49121501107462       3.83807402443927
F         5.79885037773590      -0.04796549855834       2.82102084906399
F         7.22863816598039      -3.06549590516236      -2.04794250732023
F         9.30594029479349      -2.41498760170717      -1.45858441529012
F         7.75891931893499      -0.87415759568632      -2.02255272229927
