38
C10H20F3NO3S optimized with ForceField in AMS.
C         2.68933617580848       0.33525023848926       1.57398543499647
C         1.65760056443536       1.27671260126867       0.96602581319921
H         1.46287356093786      -0.81313033784029      -0.90717317503083
H         0.42339551877764      -1.69287224470032       0.26544632949677
H         3.17892972325351      -1.48221418881400       0.47002825344837
H         2.07556354243683      -1.71790868131509       1.88740484704187
H         2.61390048360414       0.35021916672916       2.68365636770201
H         3.72051096244501       0.62738041813265       1.27700691837098
H         1.36958538330089       2.07451932716463       1.68894304902180
H         2.13792001973972       1.78125604326537       0.09411197757044
H        -1.20025188031990      -0.48587722275729       1.46934776589522
C        -0.42238557240846       0.27650572583747       1.68732906907331
H         0.12167920468199      -0.07781178179454       2.59049255553511
H        -0.92725760730778       1.23340790628246       1.94635451072896
C        -0.18019144681465       1.14541054241317      -0.61565234901339
H        -0.28362546515073       2.22860431781106      -0.37940830737600
H         0.45647700558701       1.10773692627580      -1.52865601805597
H        -2.30028421422740       0.75132934425573      -0.12762193470575
H        -3.00581587133803      -2.09539165043991      -2.60229420034104
C        -1.65086783066679      -0.76653612755113      -1.55767738591329
H        -0.84276978564331      -0.90535294252044      -2.30782258127919
H        -1.52190160494026      -1.50344906231650      -0.74197213927183
C        -2.99533608354438      -1.05222138120092      -2.22161470900009
H        -3.16097216350129      -0.36230257168780      -3.07608463702496
N         0.49759487571868       0.45998076759280       0.53336470964731
C         1.11442701041470      -0.83199773384405       0.15103112555189
C         2.33415788024450      -1.04111636201526       1.04292762602154
H        -3.82089996837575      -0.93331300352267      -1.48742397612673
C        -1.60380224737495       0.65703451692834      -0.98705067443568
H        -1.98837935433284       1.35582616076059      -1.76303113697115
S        -3.26255560139420       5.10655522025688       0.21698709307055
O        -3.06657283063803       6.13659416032473      -0.90534236386349
O        -2.90109679787909       5.89726805920081       1.48311502307670
O        -2.06168973416350       4.16686177975680       0.03985988965978
C        -4.88457209004402       4.29105845136794       0.24771726345085
F        -5.08449160038779       3.61325170684361      -0.93919783863477
F        -5.87618848853013       5.23958620360330       0.40652810246954
F        -4.93310849160305       3.39684525865896       1.29942497311549
