55
C15H20F18NP optimized with DFTB in AMS.
C         2.81230075968362      -1.88908778088044       2.87582998987546
C         2.30608891111483      -0.45922601123344       3.03160865782595
H         2.77002204733201      -0.32939605361374       0.36449064376673
H         1.25997768480322      -1.20287409335826      -0.00925917645266
H         3.56927153315709      -2.44615574664371       0.90424607530060
H         1.96474803636098      -3.09728135144066       1.27045020574661
H         2.25250801868522      -2.57795763186224       3.51233586777560
H         3.86348024331502      -1.93624959335900       3.15989328110351
H         1.80068688286050      -0.26630104990479       3.97819461871495
H         3.11999258527668       0.25393888239623       2.89745796692073
H        -0.62144723063247      -0.88644351021086       1.39154971700438
C         0.04534481487462      -0.90947538532307       2.25011114463979
H         0.22805986849827      -1.94234763020910       2.53577739322353
H        -0.40381710371293      -0.37082573079660       3.08273049146484
C         1.13881165291896       1.20219420427595       1.64534438458530
H         0.69565407093150       1.60486706450863       2.56012756804484
H         2.13040222920471       1.64003645573508       1.52483515382218
H        -0.43099813190935       0.72179060761857       0.20921029449530
H         0.71969774785474       2.54468568337435      -2.84767680732907
C         1.06175902042322       1.89249643291614      -0.82382820933090
H         1.74035917538735       2.71965242423669      -0.59806928813440
H         1.66814241729522       1.03792196051647      -1.13402632132319
C         0.13111693952394       2.29315120449896      -1.96609416934653
H        -0.46671999759348       3.16171879212266      -1.68731219355590
N         1.33727204490437      -0.26346600033441       1.90015711551979
C         1.99612533259635      -0.98457224171695       0.76399953025205
C         2.61746743648867      -2.22998455700355       1.39014520692898
H        -0.54238962862482       1.47300039371747      -2.21914510804002
C         0.25843238803634       1.53926437128173       0.43477943423424
H        -0.35216476156292       2.40454191209045       0.71158625954803
P         6.12080462690421       0.24977953893574       0.98585191463883
F         5.27339178102082      -0.17906642917152       2.39372660443117
F         7.19077380735242       1.18566526493875       1.84926721002846
F         4.98800804377975      -0.69679684707384       0.11901247845771
C         7.22487831661145      -1.31570404870552       1.41529835279747
C         4.86626070458363       1.82399560985916       0.92108941970679
C         6.91628776132604       0.78365914304568      -0.76912435738821
C         6.64358880057075      -2.74649058244006       1.26353085222957
C         5.30639450469587       3.28469115697104       0.59841048420613
C         7.76307671214817      -0.11524248006734      -1.71660611867309
F         7.58479748445508      -1.21817515720816       2.70680466296061
F         8.35703928233017      -1.27080784908751       0.69059814846859
F         4.27888354327159       1.94668537018082       2.14051285469698
F         3.83716133844649       1.57043681570152       0.07015821236275
F         7.62605253488039       1.91002507024501      -0.57913416448271
F         5.82964334955848       1.12202737543293      -1.50231443285947
F         7.56171767259867      -3.65875812861763       1.57254199878000
F         6.20752196742445      -3.00581797499995       0.03586716164562
F         5.60996255543666      -2.91824109001473       2.10188461740375
F         4.30229559352252       4.10238455628009       0.95862027916785
F         6.38285033307236       3.64779766830114       1.27944759153195
F         5.52419837061489       3.48846623107556      -0.69246533978848
F         9.05108101334867      -0.08771654575365      -1.40277801858299
F         7.64399733492532       0.31625868933936      -2.97306943326972
F         7.33816591832966      -1.37857140896544      -1.68582891455025
