41
C11H22F3NO3S optimized with DFTB in AMS.
N        -0.17859618087828       0.08366606885090       0.05531143764587
C        -0.99599824923493      -0.52636242571096      -1.05608011384630
C        -1.17482017243541       0.57866276407551       1.08042891134022
C        -2.40258000660778       0.02242116749545      -0.87985232665806
C        -2.53788578722482       0.06315166027209       0.63858494115673
C         0.60904853110040       1.24524131459293      -0.50016870039234
C         0.71258875483756      -0.95737735226262       0.68256396916821
C         1.37269664954895       2.06280490934091       0.54060280096351
C         1.59969006602366      -1.72381028152690      -0.29851078146965
C         1.84933892994067       3.36001964773957      -0.11184634846736
C         2.25684078258674      -2.89341502436494       0.43295608079496
H        -0.54190049460065      -0.28515456992565      -2.01607336815547
H        -1.00601357317246      -1.60910445758696      -0.92091342066213
H        -0.88060023011820       0.23438617060848       2.07114455599021
H        -1.16892357534876       1.66884075970097       1.06704618394386
H        -2.48925789015011       1.02631712618613      -1.30265378488486
H        -3.14029759122169      -0.62725589313670      -1.35107376714854
H        -2.72288720906509      -0.93947657171007       1.03247155534826
H        -3.33482489971700       0.72771341323106       0.97299418057135
H         1.31508837727523       0.84200119633913      -1.22875777614566
H        -0.11734075565262       1.87668516642631      -1.02045817018555
H         1.33175869571409      -0.44617501217784       1.42208075527443
H         0.04589445631014      -1.65351478938594       1.20146969492347
H         0.74492779908294       2.29699635408177       1.40487725465427
H         2.24215996883076       1.50404979239845       0.88948370822544
H         2.37174923518996      -1.06722393494174      -0.70373655959720
H         1.01202663193520      -2.11178094083335      -1.13460200780822
H         2.45160328694312       3.13529886069505      -0.99052721119727
H         1.00119056261686       3.98156348100227      -0.40488222205821
H         2.47029187755463       3.90852752622199       0.59396672476065
H         2.82669732277730      -2.53696559492031       1.28958081452545
H         1.50556797229838      -3.60490273271422       0.78045393380484
H         2.93850656935626      -3.40404281301750      -0.24549129223518
S         4.68249837148302       1.04575255769422      -0.47953096394401
O         3.47300132098591       0.63235721247492      -1.19389788730461
O         4.51719380302336       2.25648357899873       0.29602549305080
O         5.90199322412116       0.92596965030623      -1.22977597602985
C         4.79970825989416      -0.26716399139978       0.83567568021173
F         4.92601438303900      -1.48688505855016       0.31153252372043
F         3.65265143366336      -0.27492815052741       1.55517827137097
F         5.79672159499493      -0.07507872544002       1.68465517454481
