38
C10H22BF4N optimized with ADF in AMS.
N        -0.21932301975523      -0.53518702492638       0.01155587123489
C        -1.36492434497691      -0.99011044690174      -0.86433499190631
C        -0.94416294537918       0.24417130735156       1.08193906818870
C        -2.33882332310445       0.19566523589371      -0.90568138659892
C        -1.97285296087884       1.07147396846508       0.32162200159536
C         0.69955503056699       0.36850277698877      -0.81923678607988
C         0.55936675441349      -1.70390784870870       0.60691189932192
C         1.59000492697025       1.29975740559242      -0.01676599359028
C         0.80678072666252      -2.85748433476261      -0.35142344245972
C         2.58777002706490       1.98188400462373      -0.95758546377688
C         1.78869443355583      -3.84662928032320       0.27943837168313
H        -0.96420568994831      -1.29963537137489      -1.83731523948204
H        -1.81258136859573      -1.86224816081718      -0.36655662447770
H        -1.43339353587349      -0.50332772895364       1.72411126603680
H        -0.22164198853550       0.81173029112956       1.67917758562851
H        -2.24279200140637       0.76337535271089      -1.84175770830957
H        -3.37367563602820      -0.17195289829841      -0.85466881504970
H        -2.84150731542214       1.29047197479632       0.95892253081283
H        -1.54456697546857       2.03405351567944       0.00634474300355
H         1.31160158185805      -0.31022539758590      -1.43619161684395
H         0.04079934978246       0.94832122624599      -1.48349797983794
H         1.52143339290342      -1.29102973908199       0.93986468114423
H        -0.02158378762779      -2.03939525431279       1.48157070530891
H         0.98963994546651       2.06843626999502       0.50168715275124
H         2.15856031020751       0.72791392673930       0.73377313530126
H         1.24583372495238      -2.48553509556235      -1.29073085861074
H        -0.14213857306426      -3.37147003433905      -0.58346076170686
H         3.26050944356764       1.24192055796145      -1.41307396857870
H         2.06854291132080       2.53076319815641      -1.75986266284286
H         3.20155360844396       2.70247681236625      -0.39736498155080
H         2.76827787861923      -3.36683769910648       0.41265201492759
H         1.42478525317523      -4.22085768269995       1.25061537290110
H         1.93328533988323      -4.70685698539469      -0.38992131922436
B         3.81337112999565      -1.44201035721538      -1.63988569983954
F         3.40624444850406      -1.09998425330948      -0.29316736195530
F         4.29566559062575      -2.75897332396649      -1.65834016899421
F         4.75902165169930      -0.50583053361211      -2.08774674214981
F         2.62659744462584      -1.35096929834248      -2.47572953227396
