38
C10H20F3NO3S optimized with ForceField in AMS.
C         2.68874241716293       0.34687548196993       1.57276635374979
C         1.65692608880867       1.28845788460402       0.96411566271134
H         1.47307467327055      -0.79819215777776      -0.91061822073771
H         0.42835593618065      -1.68183958449158       0.25550237522254
H         3.17875750156950      -1.47626229455511       0.47816449872995
H         2.06633205430680      -1.70354398031684       1.89015461038583
H         2.61572776245380       0.36447600775198       2.68219923929297
H         3.71978905703487       0.63741080180387       1.27403238152467
H         1.36616003994874       2.08374992206197       1.68867637001820
H         2.13846354697647       1.79581055810288       0.09468059660721
H        -1.19800007069285      -0.47959744733134       1.45491591177102
C        -0.42401672109812       0.28547233259671       1.67631126164177
H         0.11869455088391      -0.06531746114550       2.57946687452254
H        -0.93250179746716       1.24026623280842       1.93491009930488
C        -0.17867894648733       1.15717916478766      -0.62187453795347
H        -0.29541344907114       2.23892041239342      -0.37875368521675
H         0.46273713230436       1.12879589978353      -1.53186100748233
H        -2.29843907974337       0.74933675209846      -0.14599590566292
H        -2.98174705365422      -2.09959493930745      -2.62073064944911
C        -1.63537325112060      -0.76546073977100      -1.57125911204675
H        -0.82358561774597      -0.90159700037686      -2.31783534196356
H        -1.50837005716565      -1.50129475272807      -0.75440998087675
C        -2.97654591068688      -1.05663785108737      -2.23957742427445
H        -3.14286929734323      -0.36676024222213      -3.09393028199673
N         0.49911387584495       0.47119318411770       0.52660376417327
C         1.11860621136497      -0.81989603548465       0.14553025958460
C         2.33236763900234      -1.03033291815635       1.04486279233161
H        -3.80471964612091      -0.94162878371328      -1.50761079723902
C        -1.59686574549482       0.65869786431350      -1.00168679607501
H        -1.98084244421956       1.35459502680401      -1.78041585191034
S        -0.84121573640106      -2.49356633920014       4.68599378708234
O        -0.38659175694003      -3.46359270544153       3.58523177082359
O        -1.77388911336581      -3.35782478793104       5.54734868405379
O        -1.81616739909465      -1.56203689338060       3.95137462533359
C         0.49640934103543      -1.66543926730008       5.59450919383475
F         1.30569732541194      -0.97921611519476       4.71129307042186
F         1.25124974440006      -2.60744961306252       6.26566353615820
F        -0.04312729624757      -0.77775097992209       6.50488300640461
