46
C14H26F3NO2 optimized with ADF in AMS.
N        -2.40849462288113       0.31206696288144      -0.15971082271750
C        -2.82032157809466      -0.77424315224961      -1.16258834827809
C        -3.61302844779047       0.43648114981292       0.75353821177315
C        -1.21345858279270      -0.16697130726252       0.65862392099574
C        -3.93052410363907      -1.59535767609027      -0.48970212922918
C        -4.11283156805783      -0.98710134272568       0.91159798000633
C        -2.12374580187117       1.60741429891545      -0.87416444108583
C         0.09442155448443      -0.23114020289631      -0.10679440228688
C        -1.69986947441941       2.73917261733881       0.04188328783943
C         1.17421489445241      -0.84871709715004       0.78807690220233
C         2.44002111500328      -1.19105742790846       0.00812543448045
C         3.51510682002889      -1.82919773104259       0.88433874808018
C         4.77775146118153      -2.18284237828424       0.10419077292738
H        -1.94320235946804      -1.41159111530818      -1.36260754497052
H        -3.16036264371095      -0.25631792503272      -2.06999264936535
H        -4.34695498723912       1.06144455997883       0.21942896295329
H        -3.31646850695840       0.93252663843049       1.68587915856920
H        -1.47724711095373      -1.18826648194559       1.00098897424756
H        -1.14430370266978       0.50693616735873       1.52660072228365
H        -3.61562972791671      -2.64542933198907      -0.41294920278567
H        -4.85997992566971      -1.53389140231105      -1.07557668717090
H        -5.15699427847397      -0.99953870041740       1.25605175892977
H        -3.49770247790167      -1.54527653229363       1.63298340953229
H        -1.34833752620076       1.38677624176874      -1.62142061567379
H        -3.04946166426842       1.86496210206713      -1.41213272597236
H        -0.02779224335201      -0.89011010912114      -0.98164589564415
H         0.42986734902657       0.76264650719924      -0.45440203621564
H        -1.56520753717221       3.64495129276996      -0.56795674886304
H        -2.46138138652220       2.96159314261594       0.80347787351389
H        -0.74577970649742       2.52865892912206       0.54408421565794
H         0.77641880760959      -1.77061784110376       1.24435695093385
H         1.41793656559624      -0.15831365452308       1.61829438562293
H         2.84697242689242      -0.28092807693016      -0.47526554143570
H         2.16944083046075      -1.89386507671418      -0.80191863775404
H         3.76869600367887      -1.14370600996624       1.71451469171380
H         3.09787834321858      -2.74154646382867       1.34460260121442
H         5.23748130835610      -1.28331375347400      -0.33756542169293
H         5.52647433421796      -2.66341814684153       0.75138869509664
H         4.54545334154805      -2.87903395874323      -0.71761511727940
C        -0.99138543609822      -3.57755669709018       0.29883101056519
O        -1.63366130987929      -3.13331240471704       1.28609525713480
O        -0.89593772104894      -3.14621499230486      -0.87613878229075
C        -0.11382519547996      -4.83988791713587       0.60827998221810
F         0.11316639951612      -5.61965626528118      -0.48641849123949
F        -0.64945411177814      -5.64687428239761       1.56871433717250
F         1.12588453583429      -4.44300161437964       1.07280119518643
