32
C10H19ClN2 optimized with ADF in AMS.
N         0.35572511971576      -1.70322507671311       0.50508079545598
N        -1.71352140582556      -1.07906397309595       0.25154859010859
C         1.78296063883080      -1.68270736667509       0.85847388588137
C         2.58121958878030      -0.76770661750637      -0.06601935315431
C        -2.93972412383669      -0.27042413159884       0.29678017289526
C        -0.56270839429602      -0.80087190090330       0.88263799551870
C         2.42889903333768       0.71356265372217       0.26730303824824
C        -0.19784987043506      -2.51161389783434      -0.45839714602549
C        -1.49385233503393      -2.12086911107196      -0.61722861838124
C        -2.89057256576127       0.91208778663161      -0.66746013702150
C         3.13211331070037       1.59379610543306      -0.76170416052334
C        -2.01018140278275       2.05297839178087      -0.17519536859204
H         1.85558507565658      -1.36982131493949       1.91289980912276
H         2.12463474559635      -2.72719305793876       0.79534477094262
H         2.22271377156098      -0.91843246261357      -1.10252180987317
H         3.64243925914308      -1.07051965915328      -0.00414633749567
H        -3.07664546099113       0.05832181692225       1.33996876588160
H        -3.76352376923139      -0.95793230471680       0.05201523319782
H        -0.41602274637581      -0.01904639508836       1.61482940898201
H         1.35521106998846       0.96624280808655       0.22607120669297
H         2.80603785805233       0.91072703401588       1.29000722101757
H         0.38043047274240      -3.26749286794615      -0.97242112849113
H        -2.26064071223408      -2.47277887606290      -1.29423548783960
H        -2.48298918006043       0.56035362524485      -1.63445373207808
H        -3.93169573187560       1.24933116385307      -0.81548874624548
H         2.64491064539118       1.44342230491674      -1.73864631570159
H         4.20268368503341       1.34415346129472      -0.84488330942513
H         3.04701121490933       2.65843429161609      -0.49464298104857
H        -0.95458015550770       1.73725897724173      -0.18966304644677
H        -2.31008720636194       2.40058624153765       0.82889194577949
H        -2.07505202681763       2.90344358199605      -0.87007696003515
Cl        0.08431503298799       0.17669938976498      -2.21823911294672
