28
C8H12F6NP optimized with DFTB in AMS.
N         0.90356392262821       0.43506331894561      -0.07376449631356
C         2.06614459729071       0.79035662567694       0.75207421302045
C         2.19575722331823      -0.14054353752805       1.95871479082437
C         3.50032016056263       0.14751627024485       2.69678475717363
C        -0.09718406518315       1.31271171930678      -0.24524412838860
C         0.90711003490879      -0.74401112544386      -0.71188430525580
C        -1.14721426854325       1.02039877423356      -1.08812083464878
C        -0.11612394457459      -1.07735671669821      -1.57782672456321
C        -1.15849623614004      -0.18778471724563      -1.77801043222362
H         2.94583422215358       0.69978631653453       0.10891778542046
H         1.95500378213941       1.82940538297476       1.06987542966376
H         2.19975851575314      -1.17812389141216       1.61599900390746
H         1.33806044997202      -0.00056331319846       2.62449187465075
H         4.34872811253904      -0.03420610745234       2.03707846940647
H         3.58414680608254      -0.50701903556405       3.56341924341137
H         3.53261242581951       1.18380048643614       3.03526006914793
H        -0.03082530236643       2.24999227006854       0.29410730369869
H         1.74863516716714      -1.40106484589012      -0.54046778706856
H        -1.94215464888900       1.74400282338168      -1.21604425408445
H        -0.06616229528416      -2.02263831800595      -2.10281645003401
H        -1.96569635405785      -0.42008472309719      -2.46193499347072
P         4.03633675001802      -1.08927166446534      -2.05208556361208
F         2.80227742424882      -2.18267589530117      -2.28533394771076
F         2.86227257342514       0.13023793521758      -2.01728925742873
F         3.79957621477351      -1.26718742159544      -0.38387047110879
F         5.17743635557635       0.03615379522737      -1.74324900902094
F         5.12674872416508      -2.28880931507076      -2.02470245588623
F         4.19026581549666      -0.88918932167962      -3.65596589410650
