37
C13H18F3NO2 optimized with ForceField in AMS.
N         2.37196333119966       0.02428041440520      -0.52090735026615
C        -1.44312517457104       0.05170557760486      -0.69564291183277
C        -0.04323322754926       0.01805822079939      -0.07394839429114
C        -2.52513818159214      -0.00846342723496       0.38940743949808
C         1.04667575887658       0.07392625554945      -1.14916913050104
C        -3.92638097044059       0.01878945467074      -0.23071474380748
C        -5.00886815315306      -0.02412815337071       0.84411117664615
C         2.96141318536610      -1.18578229923930      -0.27544611285332
C         2.98982446824197       1.18595343349192      -0.14583759167002
C         4.20245093352251      -1.25347096161052       0.36230668815883
C         4.23122756733499       1.15394061364185       0.49413259021090
C         4.83796754823605      -0.07482356251883       0.75003692122862
H        -1.56130554698326      -0.81523557501237      -1.38265031515374
H        -1.56191814811861       0.98873900496384      -1.28348712884314
H         0.07821312673953       0.88555327141912       0.61155102899546
H         0.07618337154731      -0.91672745253458       0.51687544646243
H        -2.40216329889120      -0.94262584162624       0.98096629230784
H        -2.40811155934513       0.86088448228951       1.07381458490442
H         0.93946726414104       1.00644475559151      -1.74769081604708
H         0.92534815654382      -0.77742943241314      -1.85607663736992
H        -4.05282832483487       0.94729407359537      -0.82911533541865
H        -4.05380359680078      -0.85591035891496      -0.90537563229992
H        -4.91349620943636       0.84818598587915       1.52519428357761
H        -6.01011829120813       0.00445334214837       0.36582961690057
H        -4.92951080700140      -0.95898660687445       1.43548324540841
H         2.46772441848542      -2.10665790541100      -0.56352113657888
H         2.51869320626382       2.14431281118761      -0.33093866901601
H         4.66335604484349      -2.21296835958299       0.55872588983266
H         4.71457812116605       2.07493840341678       0.79378478489118
H         5.79720525980571      -0.11373053018152       1.25052111389495
C        -2.08509923123613      -4.57780829070906       2.77785909601752
O        -1.40233036907170      -4.83830757282091       3.75563358508867
O        -1.57520497634947      -4.58047059167601       1.66906318356839
C        -3.54065077266876      -4.24833127242162       2.93082823791629
F        -3.76409672998065      -2.95545166574391       2.50100250976353
F        -3.93016835788186      -4.35558433016303       4.25452975964900
F        -4.29665957399965      -5.11817644739458       2.16712284982776
