39
C11H21BF4N2 optimized with ForceField in AMS.
N        -1.12482133932037      -1.73945024923582       0.23050838352611
N         1.09823894415615      -1.71437706150764       0.30251290333568
C        -2.51761507221995      -1.46249478169269       0.57658136772887
C         2.45873123158646      -1.39881022098580       0.73493662954265
C        -3.01631893304320      -0.19125342021518      -0.12458484921037
C         3.03263137000713      -0.22525926182668      -0.07100120737224
C        -0.03931588117981      -1.45965050797527       0.97797491959840
C        -0.65915798039334      -2.19411751493457      -0.95003277892209
C         0.71960614961061      -2.18231343113376      -0.90404406408950
C        -2.24952677950178       1.05575109377600       0.33928251860941
C         2.20551184501487       1.05465096757138       0.11416532733448
C        -2.82416121246228       2.32649899836351      -0.27716323849356
C         2.85108606432810       2.24198618156056      -0.59150179066243
H        -3.14909534991894      -2.32530831131980       0.27272141860580
H        -2.62145162752278      -1.34443372106207       1.67816551309626
H         2.46715866487402      -1.14077823418257       1.81754796868495
H         3.10364089871526      -2.29349873908673       0.59883444107493
H        -4.09660489188449      -0.06508877836735       0.10557128238503
H        -2.91077188604189      -0.30831297755339      -1.22563740511497
H         3.06643849753584      -0.49588809223542      -1.14904507065319
H         4.07410100496259      -0.04287380019695       0.26686675185464
H        -0.07680765302397      -1.01567464188432       1.96435848795982
H        -1.27288989535123      -2.47612781931156      -1.79496179058457
H         1.39283470361080      -2.45206440638673      -1.70662162410905
H        -2.29714385094863       1.13934336588448       1.44697502152294
H        -1.18464901985173       0.97381588902552       0.03844979167961
H         1.19055993524133       0.90660629491166      -0.31053853547151
H         2.10586868541207       1.28867021534645       1.19658566777393
H        -3.87822674250572       2.46835816833571       0.04225865599949
H        -2.77818780323072       2.27327690856208      -1.38561638608987
H        -2.23053992167402       3.20256044835034       0.05962048017501
H         2.95361611876951       2.03599885836435      -1.67814853666256
H         3.85261884123580       2.45013904298869      -0.15906991707355
H         2.21350154840608       3.14176956414728      -0.46092716378081
B         6.16145508811606      -0.03203171931087       2.70101257420766
F         5.79407428678798      -1.29382972476278       3.23937595373328
F         6.50131283242765      -0.18319740242268       1.33054151509344
F         7.28083734737327       0.47804942111303       3.41079992143263
F         5.07137637330325       0.87043688328960       2.82332080943525
