49
C13H28F6NP optimized with DFTB in AMS.
N        -0.21333556849907      -0.29233542398685      -0.52803018793878
C        -1.57647189480893      -0.05542423188675      -1.10430551855923
C         0.41199849399383      -1.45363464129236      -1.25591723317995
C         0.60539158073243       0.94475445033245      -0.80817647393519
C        -0.26398615358928      -0.58422824325920       0.94738306913512
C        -2.47617157399406      -1.28357670389227      -1.02209053168468
C        -0.43486669614219      -2.71713914960127      -1.20752459291429
C        -1.84022714037298      -2.46804560940512      -1.74874675850192
C         1.99443087959721       0.94469342103382      -0.17459260321345
C        -0.87975572108033       0.51705891740056       1.79374780213091
C         2.83351561819795       2.09218156652337      -0.74709933977359
C         4.20220057113497       2.18153311659751      -0.06007219444031
C         5.09424136775169       0.96766703108721      -0.34402895801904
C         6.47406490172027       1.14233430598121       0.28728243987433
H        -1.43072652192303       0.22651617134326      -2.15125417106478
H        -2.02445700966368       0.78969662864439      -0.57848186819924
H         1.38305870677762      -1.64560897986778      -0.80267846376650
H         0.55319221442582      -1.13432064974541      -2.29224267195299
H         0.02584732839849       1.80242192669514      -0.45654053131815
H         0.68913498329750       1.01718686811857      -1.89642931385838
H        -0.82686158183233      -1.50772690306743       1.07972329745900
H         0.75993529412358      -0.77137693562244       1.26579518077855
H        -3.42888125894491      -1.02371448190326      -1.49128307896135
H        -2.67922329394192      -1.54205366696454       0.02004135921470
H        -0.47714332075362      -3.10755946012570      -0.18873812438166
H         0.07284548846920      -3.46510752282166      -1.82151788199613
H        -2.45632815205365      -3.35888862045552      -1.60789034839355
H        -1.79199232902037      -2.25299153426426      -2.82146858630948
H         1.91727823850815       1.06335904848954       0.90814178657681
H         2.49864115385086      -0.00024116431401      -0.37143266844820
H        -0.34075198852156       1.45757991723622       1.69619344828066
H        -1.93016802467361       0.68235439215174       1.55696297293574
H        -0.81258760822981       0.19643581579160       2.83324387083554
H         2.30017577244921       3.03863782212464      -0.60304548582831
H         2.96924391290678       1.94545670178610      -1.82437712532325
H         4.05672147669175       2.28515629052639       1.02034824142309
H         4.70274810728471       3.08864359868916      -0.41614546492663
H         4.63514879188604       0.06185357314824       0.06018075612583
H         5.19953555319709       0.83890037815044      -1.42683998910432
H         6.38506529379601       1.24856950051083       1.36914607589901
H         7.09130011764093       0.26967551440863       0.07482894212350
H         6.97397493274725       2.02835250673943      -0.10824481507944
P         3.09635245837039      -2.61129443345202       1.42392216988409
F         3.25426771010949      -2.05443555126895      -0.15313702710016
F         3.44708468089184      -4.11862367346421       0.92448966123895
F         4.66135021944297      -2.27089371086810       1.70210329087774
F         2.86603077747905      -3.10943733389509       2.95547045513843
F         2.67546211980727      -1.04889988423653       1.87032871009439
F         1.46336199956497      -2.88960849914978       1.09487807774658
