37
C11H24ClN optimized with ADF in AMS.
N        -0.22374751323808       0.26670256329850      -0.13293595943692
C        -0.88794896517598       1.17841073131080       0.89556199253992
C        -1.15780370755701       0.07229594870843      -1.30786386773969
C         0.12681063261989      -1.05628728147112       0.53407556593369
C         1.02134440119058       0.95432948703624      -0.66413210332289
C        -2.25614152399756       0.67514354929726       1.31538334106370
C        -2.52419734661964      -0.45731933345818      -0.90575798609189
C        -3.18715760622211       0.45531363414616       0.12601163986675
C         0.93757586893428      -2.01654467575796      -0.31618296060865
C         2.12996534101015       1.19758753709513       0.34174054423334
C         1.16509880025327      -3.30494628615230       0.47825775916346
C         3.29668881040297       1.90294906320806      -0.34541166753443
H        -0.20662480425194       1.20068773179435       1.77960631233725
H        -0.96189038420827       2.16418008689101       0.40563342463400
H        -1.25913783302723       1.06543144674701      -1.77606182864115
H        -0.65188220883146      -0.59328713851781      -2.02122420593497
H         0.63368643730296      -0.78078578674624       1.49276992522208
H        -0.82790727136174      -1.52070015720187       0.81025274751849
H         1.37883424919162       0.33493759176649      -1.50285104242430
H         0.66621839735147       1.91047075477168      -1.08509984910774
H        -2.14211069626755      -0.24288306029447       1.91566075301802
H        -2.66813188388400       1.42837783071879       2.00674493198797
H        -3.13287572313534      -0.52683746351485      -1.82268893984878
H        -2.43518717066839      -1.48365634164345      -0.51192915401446
H        -4.14825157249401       0.02694238039201       0.45263637645585
H        -3.41129867221962       1.42932759178895      -0.34792028186457
H         0.42583309782763      -2.26006499235395      -1.26515286451740
H         1.91677426368344      -1.58043592081816      -0.57300918920021
H         1.76708972503295       1.78643183154949       1.19816519947506
H         2.46841087600721       0.25230073750390       0.79204955341330
H         1.76184618834112      -4.02230686107824      -0.10355116425654
H         0.20751365971925      -3.78543721137912       0.73356031423249
H         1.69351566473602      -3.08838268030165       1.41903798626329
H         4.10197475991815       2.08574255527657       0.38032673745961
H         2.99220018223875       2.87658533485322      -0.76264236543039
H         3.71235102227901       1.29520874767620      -1.16609117746052
Cl        1.03988278491920       0.29614316075911       3.39579131241721
