37
C11H24ClN optimized with ForceField in AMS.
N         2.00025985741587       0.43772539449026       0.07610482791534
C         2.25215226229551      -0.86419127282198       0.75460673666158
C         3.10048615507538       0.58879383236388      -0.92409186941948
C         0.68495841326396       0.44161235390704      -0.63550766995901
C         3.66858336982539      -1.29102134451515       0.42272653432873
C         3.90033316535010      -0.70232940871393      -0.94238892544034
C         2.07005911698188       1.55210533932113       1.05583945783709
C        -0.55057311600106       0.25837888450016       0.27820980206241
C        -1.82304122173402       0.10502082972337      -0.56572616213670
C        -3.06243179032120      -0.08095921770846       0.31770489608623
C        -4.32985695126082      -0.19654306083819      -0.53821681111739
C        -5.57143191055779      -0.37618115496133       0.33010372278458
H         1.57445018030558      -1.66401479242668       0.37644580816782
H         2.11226145704796      -0.81567481886216       1.85901987811564
H         3.79962141567421       1.41884027730780      -0.66575870327258
H         2.73524230166055       0.81312005474573      -1.95326067822640
H         0.67791046562590      -0.36873787007123      -1.40152334044251
H         0.55981261764371       1.40097680772592      -1.18881524956581
H         3.78013418048435      -2.39716379201575       0.41767525439210
H         4.38009807963439      -0.84431874991991       1.15231647439986
H         4.97922225732819      -0.52188657960973      -1.13473839138566
H         3.49252345884487      -1.38702478635110      -1.71948152169139
H         1.34039745420085       1.41861083419195       1.88217243033189
H         3.07630767857417       1.60254191573917       1.53047575057226
H         1.86935965745244       2.52800159446658       0.56019545959947
H        -0.43423588615850      -0.63911603046334       0.92110742831763
H        -0.67329737317955       1.14757834703323       0.93152546621452
H        -1.71821795015449      -0.77633311596952      -1.23625378077729
H        -1.95343473358393       1.01251817984922      -1.19588266693263
H        -3.16002903447631       0.78810465156271       1.00496938431966
H        -2.94385917647174      -1.00331567026165       0.92806212858574
H        -4.45204850271073       0.72214510576676      -1.15254264945256
H        -4.24133423077141      -1.06767898777293      -1.22350160595315
H        -5.69708765601584       0.49349412510421       1.00957526494729
H        -6.46964973170594      -0.45180238965290      -0.31841540758101
H        -5.49018922972634      -1.30523081646790       0.93343972272987
Cl        7.96947754434441      -0.31450042619525      -0.71379293591580
