40
C10H19F2N3O4S2 optimized with DFTB in AMS.
N         2.65799035470227      -0.33603289703552       1.24927636552322
N         3.51382360289034       1.63598993601296       1.18131029223936
C         0.54352805621276      -1.55815409732968       0.95045884626130
C        -0.08411988122983      -0.54199767056040      -0.00849934977561
C         2.06684074757411      -1.60088839338932       0.82598105169042
C        -1.61302976961619      -0.56566547178363       0.07975030830095
C        -2.23720308957234       0.45993745181578      -0.87183669969352
C         2.94185215780145       0.68446449082575       0.44680817647886
C         3.06153017053518      -0.03486024944464       2.52044913342769
C        -3.76250955874708       0.43946324538392      -0.78988133526491
C         3.60907895361907       1.20876133553916       2.47635636311029
C         4.12073677041489       2.83473557006315       0.62730700581510
H         0.26705784181751      -1.31925960558518       1.98244917143986
H         0.16587361225474      -2.55883584634338       0.72247842712297
H         0.22864307865934      -0.76975857370834      -1.03269923141407
H         0.27800164308423       0.46284470136277       0.23649896750399
H         2.37425771325114      -1.77743251491491      -0.20716628640540
H         2.48622599887869      -2.38507657199597       1.45964494762646
H        -1.97603767882838      -1.56756708490501      -0.17269987189789
H        -1.92193370005869      -0.34774639553231       1.10810118532865
H        -1.87179431879678       1.46101053229470      -0.61794999451252
H        -1.92439839476012       0.24035184587130      -1.89796867183040
H         2.77886083194509       0.72407353712701      -0.61578731189202
H         2.94479945499835      -0.72445757200106       3.33779450987188
H         4.06197708627177       1.80992187810807       3.24484581825295
H        -4.09467664591125       0.67568002777441       0.22207842260517
H        -4.18299180107253       1.17616376769749      -1.47452731793569
H        -4.14636740440213      -0.54512277810069      -1.06013153674702
H         4.79216760220524       2.53439675292062      -0.17769483856130
H         3.34399053584573       3.49350055171999       0.23787989115296
H         4.68079012190676       3.34081266871995       1.41052756409106
N         6.03098870004366      -1.08159883170395      -1.66165855570042
S         4.77085536773862      -0.44957177305183      -2.37412818702515
S         6.05071037721649      -1.07688592640997      -0.07635933021602
F         4.76322946258977       1.13461556775768      -1.89881318054183
F         4.79362318363188      -2.04485270403960       0.36058204331509
O         5.01011506291193      -0.39748188382542      -3.77274482823768
O         3.48173037978241      -0.90009211156784      -1.91506899170053
O         5.71745348483935       0.17104780961049       0.55408460868036
O         7.20394396037260      -1.77858332117657       0.36603338501339
