51
C13H24F6N2O4S2 optimized with ADF in AMS.
N        -0.93771161604578       0.36721751393325       0.15690945103941
C        -2.06937102316367       1.32920842737262       0.51066213058648
C        -1.15341643556838      -0.14756373151763      -1.25291018692701
C        -0.91371587021456      -0.76503121090968       1.17542975744978
C         0.37948541910556       1.12606145663711       0.14921977856070
C        -3.45013048811984       0.73200881448929       0.29719079154152
C        -2.51283310153375      -0.79293838335341      -1.45495159838562
C        -3.63171304550825       0.19105042820514      -1.11813676477396
C         0.18981549363036      -1.78793770437541       0.97641877015881
C         0.84206206646432       1.67888001471107       1.48435050475721
C         0.10094144628207      -2.85198436070417       2.07349336190617
C         2.16123747494841       2.42814795738041       1.29923562589680
H        -1.91984708260012       1.60945718973200       1.56094993964026
H        -1.91517484511952       2.20824274654467      -0.13708882598945
H        -1.05324974709800       0.73466882224561      -1.90644434766840
H        -0.32618909806215      -0.83486226855211      -1.47594101736660
H        -0.86211227095337      -0.28331186597113       2.16127852564598
H        -1.89619061840240      -1.24730402075224       1.13419401991038
H         1.12771058873185       0.43474642560409      -0.26902341223805
H         0.24003875312594       1.94320461288297      -0.57686908542724
H        -3.64750345476513      -0.04073336260416       1.05656531897483
H        -4.17031540174033       1.53978501013448       0.50285526261447
H        -2.56892387613601      -1.11354517162737      -2.50868210773889
H        -2.60273998450398      -1.70606244131728      -0.84288637843558
H        -4.61462507249538      -0.29530183030969      -1.22050156774997
H        -3.60651665623296       1.02664861666409      -1.84342980161920
H         0.09980843235470      -2.27728724872142      -0.00862285424649
H         1.18284579552256      -1.31007048918632       1.01606377331281
H         0.08793415864979       2.35241794164288       1.91490509224900
H         0.97705267601692       0.86986921347915       2.21750888698983
H         0.86890858428418      -3.62345187216505       1.92338160788107
H        -0.88441970717497      -3.34228016362209       2.07353771950655
H         0.24510791357411      -2.40659232081641       3.06764357934513
H         2.49258306324662       2.84856497533941       2.25896902732823
H         2.05346659058248       3.26142961043101       0.58666239839896
H         2.95719803065248       1.76248116602836       0.92812535799930
N        -3.13038620026798       0.67495624498197       5.36167423459921
S        -2.21231634334978       1.81812289849770       4.72793144801243
S        -3.41188385555210      -0.75920838581514       4.68559579967116
C        -3.45354386320803       2.91748797791393       3.81877952736136
C        -2.03332182679958      -1.82517208778294       5.40782621637954
O        -1.70053100635560       2.67765245883966       5.78103781016231
O        -1.30335977868359       1.40424044660718       3.64606718284789
O        -3.18829552107793      -0.85455847447902       3.23819281586731
O        -4.62640913589482      -1.31054691261876       5.25993323584697
F        -2.77472910193975       3.80624018082295       3.03254000273003
F        -4.22949829071064       3.61331873643826       4.67001725211978
F        -4.25568674291378       2.18160280067410       3.00285464269366
F        -2.10268830919885      -3.07513574344124       4.87628363734653
F        -2.13607780335937      -1.92243687823175       6.74767576725552
F        -0.81053312372196      -1.30977950125893       5.10481848747904
