40
C12H26ClN optimized with ForceField in AMS.
N         0.98534543424228      -0.30516614289908       0.00004360844250
C         2.03962642476479       0.05505290510197      -0.99759487307657
C         1.67859023495319      -1.18848744881038       0.98686703679805
C         0.49208405914966       0.92414952973774       0.70263346842218
C        -0.11198166566190      -1.05744547580335      -0.69125749148817
C         3.25718382777974      -0.80954126690135      -0.73383079967678
C         3.17054448564941      -1.09209625074507       0.73836990588042
C        -0.26005460678146       1.93134756728494      -0.20040666954641
C        -1.28044848752770      -1.49043058027842       0.22643986955148
C        -0.58814340745764       3.21190943708067       0.57918497967532
C        -2.27681419014915      -2.36732964096908      -0.54387456422120
C        -1.34374395295468       4.21469220572378      -0.28812504290815
C        -3.45039532498463      -2.78421918860942       0.33805737310051
H         2.37000908903863       1.11398581887146      -0.89638754112206
H         1.71040294323609      -0.07421202966506      -2.05401410056775
H         1.39985872733333      -2.25953557858296       0.85926552144340
H         1.45611515044856      -0.92714284931375       2.04670667786237
H        -0.17710906378777       0.64688489627258       1.54677725671166
H         1.35565397512816       1.45212003139764       1.17173223332987
H        -0.52974963929751      -0.45337060186542      -1.52609477567557
H         0.31231969901179      -1.97081544926188      -1.17073782344520
H         3.17804170028865      -1.76055417380323      -1.30645447810541
H         4.20367984140061      -0.29047152318250      -0.99789463629476
H         3.59567454875422      -0.23877007965268       1.31257425700765
H         3.70152558488038      -2.02994173440500       1.00964922312051
H         0.35407661395803       2.19790691824162      -1.08628734373531
H        -1.21300832659999       1.48632854525118      -0.55557722297330
H        -0.90034784592261      -2.06137651382983       1.09958527674779
H        -1.82164163010936      -0.59668571808323       0.60025814809629
H         0.35198227900436       3.68662596745126       0.93659966521828
H        -1.21383501861688       2.96104093835327       1.46372487711401
H        -2.67004245382503      -1.80654691897232      -1.41970359326860
H        -1.76545011979688      -3.28312953292816      -0.91262183633538
H        -2.29953812154556       3.77436612797699      -0.64400381275185
H        -0.72560431420451       4.51063897518354      -1.16239380543624
H        -1.57205760981284       5.12285983834757       0.30919669243916
H        -3.98612513626066      -1.88797166363437       0.71667020248831
H        -3.09140577594767      -3.38977350552399       1.19754205830276
H        -4.16134833818679      -3.39633394284342      -0.25638027372001
Cl       -2.55141512509062       0.27059353138777      -3.73825921620383
