34
C8H18F6NP optimized with DFTB in AMS.
N        -0.00864556439558      -0.19580710764963       0.20951098963593
C         0.96894217845064      -1.08301918147803      -0.52708083518554
C         0.81241078327918       0.59209841675521       1.21333155007058
C         2.33253632857527      -0.44424090252726      -0.32257765608354
C         2.24142264870726       0.07331376692845       1.10761253738358
C        -1.02678808844798      -1.02944336529647       0.93946268791886
C        -0.64887993050113       0.73317628632219      -0.77827570466243
C        -1.87644450918442      -1.90084201023196       0.03008756919550
C        -1.69395385924260       1.66251794291550      -0.17642139278666
H         0.67334556352006      -1.16628453235041      -1.57265365001083
H         0.94470897396082      -2.06640359870962      -0.05761789539544
H         0.39174653987884       0.44849488418373       2.20723941215002
H         0.75971528228198       1.64920102364672       0.94782807694779
H         2.49324030107781       0.37479685509621      -1.03017123130427
H         3.12627749173748      -1.18138563572718      -0.44469915582189
H         2.39833019573590      -0.74380943504306       1.81456923478069
H         2.95955283427066       0.86785676042357       1.31211851683851
H        -0.47244745762729      -1.65711422758647       1.63677302781500
H        -1.65621081230033      -0.34739951016596       1.51412676905593
H         0.15951714545537       1.31566635558179      -1.22804702161035
H        -1.10734322304192       0.12073811906893      -1.55810458487117
H        -2.48701213052803      -2.53743101788984       0.66998763638665
H        -2.53963319512339      -1.31256303489675      -0.60354341798450
H        -1.26054976758931      -2.54267801947876      -0.59737760762024
H        -1.98520214350943       2.37991142447997      -0.94334812261055
H        -2.58277357452298       1.11584689192711       0.13315575130611
H        -1.30325905001205       2.21293662513780       0.67754436009584
P         1.13792441290680      -2.92596146433603       3.43250597147806
F         0.72099197249164      -1.28771792920487       3.38696293376265
F         2.69430008620715      -2.48722363809510       3.69311951083881
F         0.82279547847116      -2.96127946950348       5.02363683005836
F         1.53083024323780      -4.50086272875603       3.40466729134794
F        -0.44080230345123      -3.28031586349701       3.07574935408552
F         1.43002681383185      -2.82933019184323       1.76725045069507
