47
C13H25F6N2P optimized with DFTB in AMS.
N         1.64702392039717       1.82373088375836       0.40682182715906
N        -0.34521394752137       1.70413929501923       1.21684669700561
C         2.80259811156026       1.61867799508684      -0.45929695730963
C        -1.77190777662320       1.44116586611741       1.41505894616475
C         3.42322707033993       0.23899547241218      -0.19604881306764
C        -2.34859815195684       0.41393463179015       0.44373887452881
C         2.66770382852769      -0.88262496484724      -0.91283207938186
C        -1.74058511573910      -0.97884965902604       0.63544297743818
C         0.38526252368543       1.49668643291537       0.12255921781745
C         1.72641071341010       2.21509306455006       1.71441504780273
C         0.46940599996762       2.14652485721371       2.22131538419542
C         3.18661667095053      -2.25532528672438      -0.47285864336808
C        -2.48537541283473      -2.03599208456072      -0.18291514245207
C         2.43792061482525      -3.38134923451038      -1.18098986891867
C        -1.86202236727501      -3.41446446245344       0.02831030915157
H         3.52132994046653       2.41128887458377      -0.23561797619217
H         2.47612137180721       1.71647798005255      -1.49855151906595
H        -2.30124241497286       2.39569407025764       1.31824410829168
H        -1.87411864814702       1.08196711798454       2.44332139357644
H         3.42670946375290       0.05404419265040       0.88122512576679
H         4.46070346290271       0.26549697812539      -0.54159057000240
H        -3.42463663010775       0.37245895072258       0.64226007850410
H        -2.21887513915199       0.75348746377109      -0.58929785229543
H         2.77973926186647      -0.76490031541948      -1.99720025549472
H         1.60187215103643      -0.81120043478371      -0.67604815245352
H        -1.77627561828910      -1.24595439704147       1.69508923669147
H        -0.69040580400804      -0.96514613880713       0.33498332638990
H         0.03097206456522       1.15430022161786      -0.83280954026047
H         2.65855760925541       2.48032530362336       2.18011818531756
H         0.09995547093910       2.33504333586038       3.21323569422230
H         3.05501268847820      -2.35613466059430       0.60825305545102
H         4.25691071725721      -2.32908799309041      -0.69376020143506
H        -3.53838077812329      -2.05965412300660       0.11907834486476
H        -2.44814789162014      -1.77317728006191      -1.24656238955160
H         2.56450499046504      -3.31144653961936      -2.26296338267737
H         1.37256853457956      -3.33067282986821      -0.95195787717615
H         2.81768716209420      -4.34691565082315      -0.84722354578017
H        -1.87949064337732      -3.68087850397337       1.08528932849763
H        -0.82493968438750      -3.41700913061151      -0.30940404522610
H        -2.41412426086842      -4.16790602123616      -0.53398661897536
P         1.16426221733904      -1.15046675812739       3.20347087282919
F        -0.16301614631082      -0.14893374964523       3.42880692911103
F         1.16576114868831      -0.69674425108486       1.58175904400068
F         2.15751965630548       0.14495964703556       3.51404497569348
F         2.47163602065857      -2.09374770243584       2.91906230413823
F         1.14888164057992      -1.54676052866913       4.77809584448459
F         0.15106132151304      -2.38442905982699       2.83198604618999
