55
C15H20F18NP optimized with DFTB in AMS.
N         1.48698342810917       0.55488652151795       0.96346858157094
C         0.04191955077757       0.20592129034267       0.77857819591443
C         1.55984914748700       0.89490415178830       2.42341309456996
C        -0.35275050123117      -0.55876444650991       2.04131596909577
C         0.64289656440945      -0.10269278158147       3.11881873779727
C         2.36796457854799      -0.63260651237862       0.68743870726059
C         1.85417896601345       1.73736574632897       0.11697167845519
C         2.42253812360066      -1.06465683901841      -0.77623604118008
C         3.29831745306464       2.18514405595387       0.28513166065651
C         3.17548355395155      -2.39140945545609      -0.87957850177479
H        -0.09273690051042      -0.36607746120641      -0.13854138548375
H        -0.51398263610315       1.14312718705473       0.69965608058637
H         1.20217836162809       1.91914537286216       2.54571341239721
H         2.58768394168222       0.82646787601107       2.76011724468727
H        -0.28586894452132      -1.63621171740690       1.87790004398232
H        -1.38232453444879      -0.32110628771433       2.31382911283315
H         0.13892802900082       0.37706797002870       3.95880371020913
H         1.21874780690436      -0.94486189851403       3.50651100293723
H         1.99519206787520      -1.45130340720977       1.30476421928736
H         3.36992028905951      -0.37625422076878       1.03359810434688
H         1.64740419461536       1.46932824898088      -0.92195192062534
H         1.17859497832109       2.54759026746245       0.40428435219031
H         1.41666177759988      -1.19006295266046      -1.18731790554305
H         2.94118204834605      -0.31185723281771      -1.37573638332127
H         3.52215634337702       2.42003501947121       1.32269340314614
H         3.99995555588776       1.42975501204633      -0.06171305452701
H         3.43910135003439       3.08552339628380      -0.31215581461688
H         4.17924693364398      -2.29160819223528      -0.46868526027874
H         2.65023932137414      -3.17238746599659      -0.32958265743703
H         3.25238761435168      -2.68920315560865      -1.92451869051572
P         5.02498028494065       0.24137554857384       4.15916608482926
F         3.52363838539357      -0.54221588145699       4.27192111094183
F         5.35784308700917      -0.00406178298673       5.76598043407357
F         4.67489528970464       0.50800795129930       2.48492780271738
C         5.67138785237853      -1.58109518061271       3.79219756998339
C         4.00100305523272       1.90618605220156       4.64033944205345
C         6.71653452548629       1.27399172899379       3.85866740833255
C         5.21752166670047      -2.30925930183956       2.49825046461266
C         4.48191404421842       2.89709517367709       5.74425154357763
C         7.89453437334610       0.82875846121589       2.94119806227531
F         5.25574660636825      -2.36858517895788       4.79835013683894
F         7.01572394455354      -1.61159268396647       3.80236878539623
F         2.77309350973837       1.53610274094708       5.06944991154006
F         3.77163928755382       2.66309483610102       3.53753618280399
F         7.25215141051813       1.59173883728861       5.04830488524782
F         6.27444764355050       2.42492993730387       3.30000080757866
F         5.71490216083664      -3.54181722884238       2.45109318132932
F         5.59806219826430      -1.67861476930191       1.38651143952837
F         3.88074306650307      -2.41636870666479       2.44754621982441
F         3.49199650137716       3.76859007840797       5.97954444424691
F         4.74385021972497       2.26941324118671       6.88364668134129
F         5.54919802140251       3.59958834870199       5.39274666505172
F         8.80014325203007       0.12247332555087       3.60301481481182
F         8.50790951638009       1.89993252968679       2.43599847498840
F         7.45164750723982       0.10358782784338       1.91127086215459
