26
C8H15ClN2 optimized with DFTB in AMS.
N        -0.69368310123472      -0.73096719717302      -0.04509648117201
N         1.37473020201811      -0.08790156517544      -0.01964783809682
C        -2.03278414071052      -1.03437545861378       0.43853025312729
C        -3.07423605315943      -0.10148013640980      -0.18331703074709
C         0.21957927626865      -0.05404351278063       0.66535737032756
C        -0.06574811197245      -1.34316699089052      -1.10740981075012
C         2.62442977983765       0.33582062874074       0.60884147914329
C         1.22826196693951      -0.95094954936316      -1.08580904501103
C        -2.83632894555228       1.36141902120282       0.18561202583164
C         3.79606353273626       0.31957210649234      -0.35823411141109
H        -2.01210792935225      -0.93923883296230       1.52805445973114
H        -2.25620812425141      -2.07264753872716       0.17929224265676
H        -3.05570874611147      -0.21530870634485      -1.27166231646078
H        -4.05966259609941      -0.41412600237374       0.17342068506303
H        -0.01023954340873       0.66361510933423       1.43088268306446
H        -0.59367172569589      -1.99273627323205      -1.78325591801901
H         2.46916804894855       1.34470951609129       1.00391300898910
H         2.79487874436358      -0.34454931820598       1.45315559729410
H         2.03843907519733      -1.19175893513764      -1.74993300090234
H        -1.87077245044516       1.69935511258462      -0.19273505195052
H        -2.85160774306389       1.48999639577551       1.26845355337872
H        -3.61605415846047       1.98525558170556      -0.25056496867402
H         4.03438016285865      -0.69770843708750      -0.66665473437353
H         4.66677672781424       0.74024540850779       0.14324624287144
H         3.57888666165691       0.91854168563041      -1.24298950167177
Cl        0.67484537147863      -1.52507744698776       2.49599641046160
