49
C13H25F2N3O4S2 optimized with ADF in AMS.
N         0.41707547896513       1.90374294796370      -1.10311872103664
N        -1.62263497402538       2.08379667924499      -0.38489914276087
C         1.57076564087169       1.62836102357823      -1.98010858921519
C        -3.09113292971286       1.99730737364447      -0.30358476872820
C         2.38951006719018       0.45615386019869      -1.44801837272847
C        -3.58532434173632       0.55161583486688      -0.25416772049424
C         1.56576997276668      -0.81166211139638      -1.25090370406121
C        -2.80105585944399      -0.36491295151192       0.67711067257696
C        -0.86992751542404       1.86048798174280      -1.47433657409633
C         0.48923211736854       2.14195594569181       0.25398830119236
C        -0.79259115046033       2.25205536622263       0.70506792039035
C         2.39510343057549      -1.98538087296307      -0.73873502069093
C        -3.29824685274229      -1.80692358506321       0.58904003002176
C         1.55076248237814      -3.24679573963353      -0.57444661344246
C        -2.48105591992997      -2.76126351798898       1.45420177666730
H         2.16738541309476       2.55191392779757      -2.03948468496809
H         1.15474608812364       1.41076549267856      -2.97241214156674
H        -3.50546034635739       2.52723930199667      -1.17365226103662
H        -3.36838135510885       2.55469949573764       0.60321778416946
H         2.89325944356487       0.73893537351413      -0.50483380646184
H         3.19250873373014       0.27506161627924      -2.18366254783698
H        -4.64806777440881       0.58729268942383       0.04468004042832
H        -3.55705798193646       0.13582044179602      -1.27003010662466
H         1.07968857524382      -1.08172089999541      -2.20191504311548
H         0.74484343762450      -0.61875653513746      -0.53688836376307
H        -2.85581131894065      -0.00607164773305       1.72388428911449
H        -1.73581331447465      -0.35542315965790       0.38496468489471
H        -1.21838105177035       1.65626637187526      -2.48279520480951
H         1.43336798988736       2.19696264225699       0.77988743219954
H        -1.18527709398317       2.42235188715583       1.69958742332926
H         2.86285078646887      -1.71664918034358       0.22704959366830
H         3.22437027646557      -2.18205923850671      -1.44262999770346
H        -4.36309227468156      -1.84909355014403       0.88153153609050
H        -3.24631631935139      -2.12616428902744      -0.46667559871512
H         1.10181276691118      -3.54031970722110      -1.53622365497570
H         0.72611891194830      -3.07505628281318       0.13514756554779
H         2.15063328926992      -4.09089898662719      -0.20238673068080
H        -2.51899334568236      -2.47072448213780       2.51710094898472
H        -1.42556557616269      -2.76104760713762       1.13910513605490
H        -2.85398276192681      -3.79292235426751       1.37063301793456
N        -1.62629033522527      -0.86149323762073      -5.06860829963428
S        -0.40523268229350       0.14800933982270      -5.31238069163689
S        -2.32024864706835      -0.92220999511224      -3.63504087992094
F         0.88645630642698      -0.66098756691401      -4.62842419220586
F        -3.14995020918406       0.54818315392893      -3.56630753167001
O        -0.09422591262156       0.18572861565839      -6.71984566303085
O        -0.44483643363391       1.38589026086253      -4.53182172011915
O        -1.43393809269370      -0.81513212240497      -2.47804867995039
O        -3.37021527839509      -1.91424510307946      -3.64313507148430
