44
C12H26BF4N optimized with DFTB in AMS.
N        -0.55569181485700       0.22265734074822      -0.10732126725593
C        -0.37858220344269       1.53052382750934      -0.82186850404308
C        -1.32989745500252       0.44618685940933       1.16351467264353
C         0.78287354636516      -0.34785206280970       0.30272960412115
C        -1.69769106895640       2.25144902073467      -1.07372507444248
C        -2.67062980400229       1.12754336879200       0.93044201927915
C        -2.46513092772576       2.46790681032438       0.22823917914230
C        -1.24699118523376      -0.76326035583626      -0.97654342716109
C         1.85408537438273      -0.32701116221283      -0.78242275513192
C         3.08516499196718      -1.08665745387079      -0.27387338509932
C         4.23607481562726      -0.98677251739268      -1.28053452512129
C         5.46628374354149      -1.79463135114769      -0.85158516122665
C         6.12498889009887      -1.24980423424291       0.41588900253771
H         0.12122472372801       1.32440051808068      -1.76984725980052
H         0.27056992598760       2.14126169793780      -0.19083159686223
H        -0.70521275247374       1.07736662017456       1.80039893032203
H        -1.45935352075447      -0.52987961522260       1.63706545562562
H         1.13440273911525       0.24023468978516       1.15288935367619
H         0.59098819574844      -1.37078319631876       0.63906360855618
H        -1.45200524668190       3.21775523997058      -1.52176519836319
H        -2.31328818773452       1.69980423328105      -1.79207747903291
H        -3.34509336809148       0.48781950990929       0.35187935175768
H        -3.12604689261628       1.28887560419786       1.91096529472122
H        -1.89104125512833       3.13240032039810       0.87942845578018
H        -3.43149382697643       2.93223822213590       0.01784627869879
H        -0.64023252987790      -0.94221805509186      -1.86182796226756
H        -1.37628225012325      -1.69214655802950      -0.42361124639498
H        -2.21864551825735      -0.37988320635737      -1.27636374428334
H         1.49654848195322      -0.78117890396126      -1.71198769008998
H         2.14370968407996       0.70699280390949      -0.98456097218167
H         3.39079773935628      -0.65730184723475       0.68424254778581
H         2.82734998021349      -2.13865628027125      -0.10775966672019
H         4.51514625224748       0.06446405334951      -1.40668602398376
H         3.89391339476222      -1.35930289419885      -2.25260147225981
H         6.19366053734625      -1.76821928776073      -1.66977035762799
H         5.18099514864330      -2.84098434034326      -0.69561666611552
H         6.33023166734806      -0.18364191508296       0.31276247902276
H         5.48435162898606      -1.39910777237470       1.28527614171686
H         7.06740708782707      -1.76849891124583       0.59433724359008
B         1.38653265421256       2.60544589772494       2.03816227877653
F         2.04988175813964       2.23318975770579       0.83735959715144
F         0.12335560296163       3.13752677116288       1.66241046079121
F         2.11738601551012       3.48884461668413       2.76987664190617
F         1.12300947478675       1.40832134488087       2.75236293346275
