42
C10H22F2N2O4S2 optimized with ADF in AMS.
N        -1.67431770746523       0.13878271877285       0.51094050884465
C        -2.00083806225219      -0.64968825612466      -0.73659332125157
C        -2.74970674875621      -0.33534516477870       1.47668406563046
C        -0.30490906388164      -0.17039009321257       1.07487552212420
C        -3.53021378421852      -0.62426584673938      -0.82439669903575
C        -4.01823062228024      -0.40969288286835       0.63488248404144
C        -1.82336699712428       1.61022284153482       0.25264769581385
C         0.86168125842697       0.24451205602699       0.19657130826619
C         2.17950254625842      -0.21325046310911       0.82896182136402
C         3.39907466293853       0.18682593384985       0.00111018494594
C         4.71109601351994      -0.28109983733581       0.62486110439802
H        -1.62125649608925      -1.66771894304906      -0.56275489682318
H        -1.48212655366973      -0.21108592083533      -1.59806925020081
H        -2.79010975197568       0.35116654666606       2.32842378854480
H        -2.42072002820099      -1.32850341496060       1.81917181065020
H        -0.29338333078421      -1.25916681661223       1.24537864594134
H        -0.26971833271702       0.33941917612941       2.04961691626568
H        -3.89791842584086      -1.56396940707807      -1.26015700654895
H        -3.87144823715709       0.19116860815742      -1.47865384166850
H        -4.59289342676984       0.52150714477343       0.73951442526844
H        -4.65973297927332      -1.22848287028243       0.98892605113950
H        -1.17164338710473       1.88586454417215      -0.58405768851617
H        -2.86890145981515       1.82526514330274       0.01296319323173
H        -1.55464880191894       2.15450906595303       1.16364866312344
H         0.77339163333834      -0.19528801232337      -0.81296108529932
H         0.88739573234814       1.34114849519769       0.08397740007955
H         2.16688162269623      -1.31213197779941       0.95419450186830
H         2.26491500393314       0.21860810550185       1.84273817930800
H         3.41347018586543       1.28592769803950      -0.11321521420519
H         3.30046136679424      -0.23297026895592      -1.01696088217611
H         4.84609192459983       0.15070586628069       1.62941850204313
H         5.57339925512460       0.01783087525946       0.01090142617771
H         4.73226845271854      -1.37835300915026       0.72579496247939
N        -3.02592265732406       3.22059686320105       4.47043899830673
S        -1.51534759748451       2.88329014201318       4.08198697896196
S        -4.24773314624532       2.63480052158142       3.61210677959927
F        -1.25203247192667       3.82410215461571       2.72006243383691
F        -4.28535766285410       1.02823380856481       4.07453147617150
O        -0.62615498281935       3.43797053211585       5.07396639928650
O        -1.27502599418180       1.53345211279327       3.56347139569791
O        -4.01956710022311       2.53719313429345       2.17213965952841
O        -5.48356389550833       3.18272100681858       4.11677463538639
