47
C15H29ClN2 optimized with DFTB in AMS.
N         2.92788206842640       1.04693352067623       0.04195800752497
N         2.80106108375237      -1.10013407744528       0.13443728432966
C         1.38436184597100       2.94176925209419      -0.00439038486955
C         2.78140983198814       2.45770666143338       0.39142008138279
C         0.98460221927433      -2.55299967858868       0.90335876268185
C         2.48646254043677      -2.43776799056065       0.61884675726389
C         0.26802209977491       2.17415909745063       0.70604132774386
C         0.13554832174372      -2.24333476550458      -0.33356954159058
C        -1.11184663664649       2.62425845758080       0.21626322260231
C        -1.35949478130650      -2.29027684806620      -0.00460993716372
C         2.68681202233565       0.02266134553271       0.85363899455004
C         3.18872076114592       0.58587530515925      -1.21699779931776
C         3.10582897737354      -0.76886800347379      -1.16164118844765
C        -2.22909582287876       1.85736221857731       0.93024410397349
C        -2.20342011041035      -1.89544014222234      -1.22071462250772
C        -3.60552368106688       2.24285689609149       0.39102178220402
C        -3.69514968799364      -1.91710124282160      -0.89323717038613
H         1.32349640698487       4.00330693723275       0.24830018967496
H         1.28477209192964       2.85067396717919      -1.08904794894397
H         0.72145127762851      -1.86346001877203       1.71143902205241
H         0.78409669726986      -3.57067832545287       1.24966642714091
H         3.52600506292779       3.01691676320238      -0.18304977604692
H         2.95778242988860       2.56491816827632       1.46479817881428
H         3.06209544696356      -2.62374764758973       1.53020108189252
H         2.79459917184916      -3.15025073361431      -0.14989901471407
H         0.34452406322290       2.32621783435521       1.78909720252053
H         0.37755445227113       1.09980921620449       0.51370701126973
H         0.36522856791759      -2.96404693422720      -1.12512538525538
H         0.38908149699577      -1.24554947203586      -0.70609121702328
H        -1.23177187511315       3.69749084174099       0.39450157766815
H        -1.18298092670159       2.45424267217392      -0.86288973373649
H        -1.56786783052733      -1.60150597146921       0.82154898109062
H        -1.63201523967126      -3.29864731748721       0.32414459998251
H         2.46572844649078       0.07989359367344       1.90519294005428
H         3.39388406876717       1.29384953943340      -2.01899373329616
H         3.24170448315035      -1.51766072163167      -1.92152037722981
H        -2.07550494176975       0.78070335965163       0.79381466815026
H        -2.18589607148680       2.06490426803128       2.00496859449115
H        -1.99950499349112      -2.58658231254156      -2.04510103675426
H        -1.91757643869046      -0.89024675223467      -1.54790094133297
H        -3.78612811297147       3.30900849034199       0.53280762095677
H        -3.67404414268230       2.01821056908299      -0.67414288621956
H        -4.38261364180493       1.68552627379180       0.91465999293428
H        -4.27280915935747      -1.62253308063540      -1.76917607106155
H        -3.91785840261097      -1.22382674534573      -0.08106483992652
H        -4.00656282463426      -2.91772744156518      -0.59077296500879
Cl        3.38856541483506       3.33034395801803      -2.59065699961741
