46
C14H26F3NO2 optimized with ADF in AMS.
N        -0.67907183391755       0.56122217774013      -0.17250318606480
C        -1.20711505541311       0.03580251041227      -1.50087559808253
C        -1.82178616051330       0.62598963195426       0.81802492365808
C         0.41741551139165      -0.33228449796987       0.38713145169977
C        -0.15376756323406       1.96394842395376      -0.45297896565673
C        -1.89176403884521      -1.31177013124173      -1.36317890060828
C        -2.54850103281884      -0.70161788788290       0.98829175767046
C        -3.03975123003246      -1.24796080517467      -0.35301435762794
C         1.66628278625902      -0.43309061356255      -0.46460134445534
C         0.51138665748276       2.67261369389349       0.71239717229113
C         2.68262790179742      -1.37528108976691       0.18369564561791
C         1.02345543657657       4.03032398726715       0.21967799987264
C         3.95759918372096      -1.47150149695190      -0.65254247914518
H        -0.36291845319897       0.06980770145806      -2.21496290392532
H        -1.93752203717290       0.79403875843870      -1.82991676834603
H        -2.51082807781665       1.39027566702931       0.42308114520603
H        -1.40820278177580       0.98775836116747       1.76941261544629
H        -0.03107313049868      -1.32375440320278       0.53034708512118
H         0.64684621097266       0.07078705887592       1.38558079405917
H        -1.02886628746155       2.53214050788901      -0.80755857853510
H         0.56961212043627       1.87221381748565      -1.28479565583550
H        -1.16792801853933      -2.09655009542762      -1.08536673642205
H        -2.26754928625940      -1.58769843106940      -2.36241501000370
H        -3.39539567862596      -0.52469770148053       1.67284134181148
H        -1.89811333508371      -1.43658520957781       1.49089349019589
H        -3.82707383469898      -0.57911447850687      -0.74768736651331
H        -3.50138415975167      -2.23909472602212      -0.21488623843131
H         2.12287094792261       0.55757217256081      -0.62222257974026
H         1.41939861223059      -0.79604099617314      -1.47480587347358
H        -0.17969904696629       2.81192726632737       1.56180682283724
H         1.37350103422752       2.08713599104343       1.06963413438594
H         2.24001562801941      -2.38166488609029       0.30747079023899
H         2.93223461446981      -1.01549722366017       1.19928452954653
H         1.53917697546209       4.56608615863514       1.02993460043447
H         1.72555478769374       3.87951800831139      -0.61425053746053
H         0.19367748979657       4.66285706563223      -0.13287923468474
H         4.41984846451699      -0.47950165575077      -0.77204220944728
H         3.73520904999447      -1.85300751987202      -1.66105607243159
H         4.69312032028096      -2.14354963651619      -0.18531643920577
C         2.09053789943341       1.53561635279835      -3.21103775945346
O         1.10902765503625       0.77993177672239      -3.42779135883693
O         2.42587433878145       2.15593576946292      -2.17098865893357
C         3.02801661497484       1.75087167063727      -4.44918448308797
F         2.49220302992215       2.69146302886218      -5.29834489308479
F         3.19921091935549       0.60788068890220      -5.18177729628900
F         4.27539563526874       2.18971737293940      -4.11120882071061
