58
C16H22F18NP optimized with DFTB in AMS.
N        -0.76159907362534      -0.61075311467497      -0.22139427045697
C        -1.67798762613480      -0.28303393206324      -1.36715037285091
C        -1.36938945454795      -1.69237477011838       0.62566319101069
C         0.53095764839198      -1.09494625894713      -0.83876971341165
C        -3.09751346624145       0.05652238405273      -0.92942449969173
C        -2.78298251324067      -1.36944234200396       1.08851161773976
C        -3.69188257289544      -1.08130595278972      -0.10277038109930
C        -0.49295309520829       0.60332406152711       0.59121629996088
C         1.59850285445504      -1.56354983151871       0.14720126072468
C         2.80058203704428      -2.09855695604992      -0.64461253787678
C         3.90535125055234      -2.57308161777742       0.29494869482605
H        -1.69680076763465      -1.16217723632381      -2.01450477777783
H        -1.22836274033432       0.55008414534003      -1.91281859750964
H        -0.71667919219270      -1.84215083053610       1.48555090149645
H        -1.37695826821320      -2.60156311539142       0.02522585883855
H         0.91249475017940      -0.26621240450236      -1.44236487220135
H         0.26671877160562      -1.91596883275990      -1.50754197218908
H        -3.68738110445202       0.20743228664087      -1.83724511220268
H        -3.11679242995119       0.99114561998397      -0.36122965947089
H        -2.78362256307012      -0.52231086985083       1.78077538657891
H        -3.14700432399142      -2.24542204675429       1.63118497404387
H        -4.68853628571375      -0.80338074847285       0.24688653193228
H        -3.78147596684390      -1.97822036475176      -0.72238678082604
H        -1.42865046170967       1.01095670881499       0.96454297570953
H         0.14401662849524       0.33438068948621       1.43070494276026
H         0.00660082200263       1.34295045606869      -0.03218277824051
H         1.21254402383858      -2.36591005917930       0.77800333721913
H         1.92032042132538      -0.73969240275242       0.79087721630703
H         3.18430086304484      -1.31090336497662      -1.30240629178122
H         2.47162425463671      -2.93292568319192      -1.27090313479259
H         3.53970711920819      -3.37441916308608       0.93613901132683
H         4.25623970643578      -1.75301752754295       0.92335898993895
H         4.74491661963320      -2.95067293348176      -0.28792411381016
P         0.15333770434516      -6.75918392302100      -0.71672032372934
F         0.78860342617523      -8.23694119361078      -0.33618953899869
F         1.66309458466207      -6.01882215785427      -0.68549662003023
F        -1.40027162017820      -7.39199073597391      -0.77554708263738
C         0.49873266207263      -7.24849436347811      -2.57424243821754
C        -0.02983212066329      -6.44226099240258       1.25437445587524
C        -0.70070765900629      -4.92969157982554      -1.11477474121185
C        -0.40192128658788      -8.32170382545440      -3.24105421037337
C         0.50303645691899      -5.15012684694870       1.95116474263098
C        -1.30203985391220      -4.34821684545452      -2.42593607679317
F         1.75995103168290      -7.69587788647066      -2.66522006883086
F         0.42201756063678      -6.14440515124200      -3.35125612565149
F         0.62153881466119      -7.43049275385362       1.89133177575875
F        -1.31958837552325      -6.52885866198349       1.62769520717526
F         0.20049191877725      -3.96759651143280      -0.74631757899343
F        -1.71807860758193      -4.82052597319904      -0.22430940945591
F         0.07493868772252      -8.63483518865177      -4.44895758828314
F        -1.64346918359877      -7.86789531621547      -3.40409084606651
F        -0.45141063309300      -9.43447960174232      -2.52018399128719
F         0.59171020053047      -5.35584648602553       3.26570306182711
F         1.70566570834475      -4.76612620999623       1.52894487859560
F        -0.32093142338716      -4.09937865678367       1.78795054710431
F        -0.36896931633692      -3.78488740459112      -3.19116958527008
F        -2.15039575785775      -3.33479840203816      -2.09383268414596
F        -1.99594869005161      -5.21115947846711      -3.14033536481567
