40
C12H22F3NO2 optimized with ForceField in AMS.
N        -1.37547731837125       0.32494686552261       0.02622573734442
C        -1.66820316827735      -0.99652645534091      -0.57255795874599
C        -2.43886709809568       0.49432452795115       1.04366963131055
C        -0.03361318035950       0.36103715722216       0.68214540917399
C        -3.17941385599206      -1.18878206476705      -0.53429772654136
C        -3.67995387222719      -0.23401925002837       0.53729970609560
C        -1.49873441544469       1.39800510875399      -0.99651002887104
C         1.15049143354015       0.20758092924863      -0.29854263975956
C         2.46731924176510      -0.02773287033787       0.45040286669983
C         3.64404336411338      -0.12285736985506      -0.52848910457008
C         4.94606075077750      -0.43726974540394       0.20176122069308
H        -1.20430230953444      -1.81475024724394       0.02622895655658
H        -1.28687988900743      -1.08774195856655      -1.61468058610872
H        -2.66021218030079       1.56617035191205       1.25296278310412
H        -2.14748324092492       0.02644977146075       2.01322748395803
H         0.03665854734999      -0.44690455145216       1.44673131520923
H         0.09146951922355       1.32324071777267       1.23007416255653
H        -3.44247053332241      -2.24191768447488      -0.29284668551226
H        -3.62016149536210      -0.92075329465850      -1.51985681529975
H        -4.39841419993302       0.49293990968291       0.09865713911854
H        -4.18143224135162      -0.78569293187864       1.36257005524320
H        -0.83578615903782       1.20892087971827      -1.86785343644591
H        -2.53599910949129       1.46409838230379      -1.39350886323173
H        -1.23554123259644       2.38905559965514      -0.56506200237628
H         0.97578228381305      -0.64835213003893      -0.98331723551651
H         1.25054432972254       1.13489155053882      -0.90138349553639
H         2.39362947633739      -0.97385880719679       1.03087137423008
H         2.64550794848269       0.81038112636389       1.15987597350559
H         3.75845299794222       0.84152913874787      -1.06997213512238
H         3.44990831679646      -0.92383888294174      -1.27505137398716
H         5.17075232177607       0.35283378269654       0.94954284166821
H         5.78030673555514      -0.48281508501538      -0.52966020187574
H         4.87139926553108      -1.41919622144641       0.71600229339358
C         2.03100980965114       0.54366246211672      -3.98241799738971
O         1.00995977600244      -0.10715829416038      -3.82599798126596
O         2.13029198207768       1.64394437221736      -3.46363080661187
C         3.16014751376572       0.00290993715136      -4.80814539757667
F         3.42127777204439       0.86738939021475      -5.85525636654696
F         2.83625737885533      -1.24106180685961      -5.32154809125127
F         4.29194301280698      -0.11471587818433      -4.02277991431788
