34
C10H18F3NO2 optimized with DFTB in AMS.
N         0.54803198575068      -0.32560311535069       0.14043031839624
C        -0.44305351156440      -0.20149629007318      -0.98663244998508
C         0.22123385279515      -1.53466306681245       0.96866813720103
C        -1.89230172783971      -0.19466751713778      -0.52160082288792
C        -1.21369193307969      -1.52592138100942       1.47865847214932
C         1.90207305935925      -0.49711098354473      -0.50458922878958
C        -2.19736983422387      -1.43444565880397       0.31516110839661
C         0.53993964252734       0.90703422275776       0.96878145106135
C         3.06369575521252      -0.63445839791381       0.46643657700748
H        -0.27595663703860      -1.06501692871875      -1.63568473055004
H        -0.20141778133002       0.71536567149685      -1.52935698851890
H         0.92180491858685      -1.56248276649328       1.80516636407646
H         0.38092345227469      -2.40376797532497       0.32403043236997
H        -2.51160321233111      -0.20092153381671      -1.42208323278136
H        -2.12456393495208       0.71560304469203       0.04059957880404
H        -1.37254067231009      -0.70214087437479       2.18216743337168
H        -1.36847595257469      -2.46150723796413       2.02191334146985
H         1.83599556737775      -1.39247387224532      -1.13035533082634
H         2.05185001535986       0.37565709549737      -1.14574824837024
H        -3.21994412730697      -1.38302448206498       0.69582599473403
H        -2.10589725904166      -2.32615894568152      -0.30986004953223
H        -0.46919397246699       1.10702498882501       1.31899640889056
H         1.19690632098619       0.77168485501685       1.82506321794951
H         0.88659221194067       1.74134398467971       0.36121786544757
H         3.96741550155869      -0.76231133494976      -0.12929684788065
H         3.19034659696857       0.25036116560395       1.08930477382641
H         2.95534423502085      -1.50948523823095       1.10449268748323
C         0.28204241052891      -3.62048005992961      -2.62442249443311
O         0.64955216357524      -2.94977273679248      -1.64305035123984
O         0.87425253510702      -4.25403818631113      -3.46473343965073
C        -1.34372018357563      -3.57790539585820      -2.76892194976767
F        -1.77017812381755      -2.28030503633425      -2.82816548314408
F        -1.95638472496998      -4.10028936970379      -1.67965711817346
F        -1.85027800300718      -4.19392897322886      -3.83695513010408
