78
C22H36F18NP optimized with ForceField in AMS.
N         0.00417644281642       0.00345783005882      -0.01778201780061
C         0.85055502212887      -1.02776845334537       0.68283683865235
C        -0.85172102646900       0.69509213830367       1.01137009067232
C        -0.83443575170739      -0.69438576494288      -1.05588447014002
C         0.85287039394608       1.03954706120496      -0.70638904145599
C         1.94139949090783      -0.47545405692455       1.63662103650489
C        -1.92757473139234       1.66630608532181       0.45844642062940
C        -1.90416602525880      -1.67651402775472      -0.51208723736749
C         1.89596881737241       0.49511825585298      -1.71658712811063
C         2.73198897553985      -1.62405860861331       2.27690655537149
C        -2.77666090119269       2.23932140978127       1.60084638635872
C        -2.71627579114391      -2.28213822118800      -1.66438637218129
C         2.78824276093283       1.62882135203906      -2.23899493546057
C         3.78858020043993      -1.09737763872497       3.24437059314175
C        -3.83102278729013       3.20954218717851       1.07461303232901
C        -3.76562067244960      -3.26263995857567      -1.14761168780853
C         3.74144242534369       1.12896200955673      -3.32144385793108
H         1.34060424657411      -1.70111254065928      -0.05479172159792
H         0.20744362171056      -1.69374579960624       1.29834432923979
H        -0.21551893148503       1.29771006753127       1.69479397549356
H        -1.35546875736075      -0.05099370658285       1.66534819396543
H        -0.18438282044287      -1.29082374251106      -1.73252698027831
H        -1.33671735276863       0.04741736886620      -1.71571832500222
H         1.37560853710816       1.67608447293180       0.04159243765038
H         0.20971323882380       1.73856957870157      -1.28283715851997
H         1.47885227620618       0.11979217221850       2.44989218451524
H         2.66072172723801       0.16635585135668       1.08882744484204
H        -2.61027785948546       1.15166358871947      -0.24660134950075
H        -1.44563062414307       2.51485411662079      -0.06877234408632
H        -2.61074560791431      -1.16234041223748       0.16975254859090
H        -1.41822833430963      -2.50697535916321       0.03998142956517
H         1.37750485206742       0.03558470774846      -2.58377300854607
H         2.55309580530858      -0.26614651326083      -1.25146696354574
H         3.23610454607982      -2.21872674734559       1.48404238577335
H         2.04034868161692      -2.29389264675361       2.83308844705446
H        -2.12320119854109       2.77666984091280       2.32235370673647
H        -3.28887978445791       1.41179847391436       2.13869131264563
H        -2.03686742030458      -2.81928072311213      -2.36171327317486
H        -3.22953382406729      -1.47216096718774      -2.22731748050007
H         3.38466520110994       2.04914387674922      -1.39984958961918
H         2.15929048021215       2.44085253317442      -2.66497131306840
H         3.30734529743195      -0.52825691031972       4.06818922657835
H         4.50562489376091      -0.43687674084846       2.71176945638929
H         4.34901098056309      -1.94983237012350       3.68273311335555
H        -4.51517821475019       2.69105385393811       0.36947527681107
H        -3.34539552835776       4.06250765125237       0.55439029618330
H        -4.42874117286780       3.60492034904909       1.92274970142360
H        -4.47539203199735      -2.74551858838728      -0.46727397246789
H        -3.27759781602407      -4.09859122769871      -0.60260148959230
H        -4.33574710823240      -3.68184046254718      -2.00329046765375
H         3.16791786083605       0.77972660356035      -4.20635627331681
H         4.36151979250503       0.29215359139162      -2.93640520529007
H         4.41325892065647       1.95506586755250      -3.63668110906306
P         8.99451695150671       1.96766278535002      -1.73504985697774
F         7.68780470266683       2.73319832508715      -0.90992967267329
F         8.43492154525585       1.41872725663436      -3.26963940271493
F         9.59806379187806       2.72307458362400      -0.31201884496048
C         8.87583642030837       3.57300220730328      -2.80658097478483
C         7.89742658539163       0.50877891714268      -1.09158149741092
C        10.75314429607452       1.19426987697678      -1.70243859659535
C         9.30605156685831       4.88257485589466      -2.11053060459031
C         8.27640362967631      -0.92382349858081      -1.54633616400846
C        11.95679608543227       2.14002780089455      -1.87158517035839
F         7.55689711307143       3.75091559126144      -3.20894784909901
F         9.63132691319414       3.44023915862041      -3.96119732562214
F         6.58168127693652       0.70502284062653      -1.49804400618136
F         7.91955597022199       0.51690910001627       0.29486874123644
F        10.82932811820794       0.25348180287812      -2.71370169706973
F        10.93376555451278       0.54317094423964      -0.49315861917031
F         9.09653351855675       5.94000077739973      -2.97803311541795
F        10.64406176638791       4.86379658437497      -1.78352415579102
F         8.56461436738427       5.11640447457374      -0.96704277453341
F         7.25881111465007      -1.78710947041371      -1.17903529223860
F         8.42763659540403      -1.01490249022134      -2.91689430697669
F         9.42854324412855      -1.36767340982667      -0.93059960454492
F        11.86977535402078       2.87150614152204      -3.03600816995515
F        13.11047419624230       1.37881701343635      -1.94280724147922
F        12.08459764810865       2.98757121451276      -0.78663524347578
