57
C15H28F6N2O4S2 optimized with ADF in AMS.
N         0.02928670917494      -0.02481330609205      -0.74881097741937
C        -0.41316062684051       0.11086762874042      -2.19846690789215
C        -0.77206354279330      -1.13289399853375      -0.09553822426532
C         1.50399809530899      -0.40890591144783      -0.78330189868597
C        -0.17662646231611       1.26544435093283       0.02708773095514
C        -1.90302813278724       0.34707572076671      -2.34105617045171
C        -2.27775471896281      -0.94575321150722      -0.22257890870686
C        -2.70310831390215      -0.77439830645769      -1.68049022782419
C         2.19460100731664      -0.48779292017790       0.56394892460068
C         0.57483998073746       2.46048686088231      -0.51593415226653
C         3.63733157389823      -0.96121966245160       0.36197391791089
C         4.41801191376825      -1.04199334466845       1.67071249393370
C         5.85231898197574      -1.52788208544234       1.47124509716084
C         6.63762875649825      -1.61284156377525       2.77694115776771
H        -0.10902565897772      -0.82853262249067      -2.68649257783851
H         0.19733437754186       0.90537891530487      -2.64220793280841
H        -0.46067871393681      -1.18314234414656       0.95676612718637
H        -0.45816675330174      -2.06031799400504      -0.59967723483510
H         1.99357617797931       0.31599646133513      -1.45148887707290
H         1.54063952695535      -1.37495140935563      -1.30781200248983
H        -1.25644549047168       1.45718181157673       0.03052874429130
H         0.11936791861106       1.03388269170771       1.06086610746500
H        -2.11360391579328       0.39821904012006      -3.42163080273076
H        -2.18791308935924       1.32980988096423      -1.92694297457394
H        -2.61500774070838      -0.08773773989321       0.38284529301619
H        -2.75122916685274      -1.83771539860269       0.22234142812049
H        -3.78493535878761      -0.57426492873167      -1.74123519508174
H        -2.51713971142533      -1.71794172687036      -2.22580391104667
H         2.21507397912786       0.49931839504951       1.05601073492417
H         1.68236065283695      -1.18829778376663       1.24640010290626
H         1.65900367010850       2.30659361732073      -0.58374287208017
H         0.22356418156558       2.76464201936408      -1.50968995179039
H         0.39878089238922       3.30600836729089       0.16726386322559
H         4.14856897883714      -0.27539389078656      -0.33677849279512
H         3.63177089913111      -1.95208315794307      -0.12778125495224
H         3.89592629597445      -1.72006734078261       2.37284605670084
H         4.43256446796384      -0.04577956985981       2.15275140475579
H         5.83156432639220      -2.51924163140543       0.98275252652686
H         6.36648214199439      -0.84881587091786       0.76790267951666
H         6.15658645068492      -2.30919688865722       3.48273684344212
H         7.66639779888369      -1.96416971486222       2.60540851329465
H         6.69607163956052      -0.62729842498500       3.26678118789979
N         2.44973678233038       1.28266853046635      -3.49409416869167
S         2.68091040941770       2.83335159098192      -3.90320411070398
S         2.47350698508073       0.07183603422073      -4.57106508175979
C         1.02788368451378       3.42530561870097      -4.65230068453948
C         4.28178677153470      -0.14567608798700      -5.13897233703922
O         2.74050895367792       3.57200231059383      -2.64557787501280
O         3.65208432006467       3.06703521227328      -4.96066074613065
O         1.72754433384694       0.31686976248098      -5.79954956048757
O         2.20573253457060      -1.14246335069768      -3.79471526272480
F         0.92923395569427       4.76773320213122      -4.50149834509548
F        -0.03816471771945       2.85946969520702      -3.99476603956838
F         0.91564787705645       3.13055491299859      -5.95693522812956
F         4.47437709439887      -1.45253266587993      -5.44957980989461
F         5.14357722727394       0.19110266117911      -4.15022978065049
F         4.54619355675873       0.59345123769070      -6.22911071286466
