26
C6H14BF4N optimized with ADF in AMS.
N         0.14691421407285       0.59697579891312      -0.05741318946464
C        -1.24522889185621       1.23740960994930      -0.28268249252783
C        -0.13098497416816      -0.77535729924252       0.54387637038694
C        -2.25256487440610       0.22596949680086       0.25146439399740
C        -1.53873563084923      -1.12049953771202       0.09435831744581
C         0.98511700555000       1.42546276129830       0.87013517842127
C         0.85957089914027       0.45596889754720      -1.37236706718233
H        -1.33731846158835       1.41811281211350      -1.36043060703259
H        -1.24565186763286       2.22568260150294       0.19414218363090
H        -0.09418810099147      -0.65844740637478       1.63748657430574
H         0.65965477322554      -1.46857795102434       0.22558240276425
H        -3.20124874033941       0.27978184826943      -0.30196561391385
H        -2.47352559016057       0.41088480430371       1.31651327990539
H        -1.97458592880227      -1.92383059013864       0.70677890748432
H        -1.54571496018526      -1.45110220579704      -0.95796970160546
H         1.20467229028939       2.38241143502136       0.37589548880928
H         0.41596210411542       1.58817490059125       1.79447227634677
H         1.91082324726464       0.87143186019492       1.08069113550022
H         0.26670942981388      -0.20441527017947      -2.01799793188825
H         0.95258389157833       1.45638760696905      -1.81772501035182
H         1.85126537003451       0.02418737283884      -1.18241913918208
B         0.37018063883449       4.08985943565716      -1.53500172627042
F         0.46316995861909       5.36855840630622      -2.07262216655232
F        -0.25724863184836       4.11250049802813      -0.24139047830788
F         1.67392555294798       3.49385601918878      -1.36706491252902
F        -0.38732159635813       3.21614380367473      -2.38852699658978
