42
C12H28ClN optimized with ForceField in AMS.
N         0.00623657157789       0.00895857324329       0.00272830566055
C        -0.87729280789709       0.62198284528318       1.05710279958254
C        -0.80411185885304      -0.68087642697361      -1.06294689994855
C         0.89678244553924      -1.01218519619884       0.66061945784293
C         0.80958492269123       1.10663176887509      -0.64362715409510
C        -1.91181094465695      -0.33009925983660       1.71036851266868
C        -1.90638815898794       0.17682778847475      -1.73609536400060
C         2.00839114383050      -1.61811932844976      -0.23449755624112
C         1.84000049041236       1.81845103497689       0.27020519166978
C        -2.75158260510681       0.41436131927145       2.74611668832514
C        -2.67080820168932      -0.64327452177092      -2.77283299214656
C         2.85590922322886      -2.61223952325087       0.55631985176699
C         2.61465562177995       2.87658784965009      -0.51206785748762
H        -1.42090328748135       1.50244613601409       0.64875371478212
H        -0.25852407903512       1.02223729702753       1.88907441731505
H        -1.27625409821374      -1.60363860666731      -0.65941988385363
H        -0.14035475173223      -1.02862875962029      -1.88358879361446
H         0.29153992793250      -1.87081061286074       1.02346094557353
H         1.37362234946808      -0.58706309893506       1.57130747594738
H         0.13414970860631       1.90364304152548      -1.02253059858600
H         1.34172054000342       0.72415597651966      -1.54251245876118
H        -2.60765710234381      -0.75279123403090       0.95836678470661
H        -1.40456522841022      -1.16611097153539       2.23249018660464
H        -2.64274089656238       0.54838103086771      -0.99586412334412
H        -1.46373481313718       1.04658682817333      -2.26202146224685
H         1.56935696505114      -2.16371068320494      -1.09370440887543
H         2.69031430331796      -0.83636858904580      -0.62439084946204
H         1.33157920892124       2.33226589424406       1.11091833653868
H         2.57853203189102       1.10492161043376       0.68663901425532
H        -3.48382520666778      -0.28346620438411       3.20477200619002
H        -2.10213852327625       0.82330147230337       3.54939554295674
H        -3.30833335049371       1.24716070308267       2.26620214742330
H        -3.45210463619669      -0.01152950808816      -3.24617186279841
H        -1.98097486081413      -1.00489301105835      -3.56500121109150
H        -3.16331860344720      -1.51427015852515      -2.29046476428670
H         3.63183321215000      -3.05110193401235      -0.10613831928888
H         3.36033205002971      -2.10094767694033       1.40372915783196
H         2.22199016100121      -3.43468471421297       0.95090713685946
H         3.34829814952256       3.37333495595472       0.15761013899053
H         3.16544955273842       2.40794763446832      -1.35521790174281
H         1.92124957120934       3.64740269606854      -0.91104431459025
Cl       -0.22493965699998      -4.75227322025553      -0.77343076543015
