31
C11H14F3NO2 optimized with ADF in AMS.
N         1.82545692496478      -0.18243356953929       0.67844459693630
C        -0.19368715678176       0.44139087898746      -0.62296690456982
C         0.38697526864971      -0.45272807913027       0.46841923834983
C        -1.66647386513434       0.12938673580738      -0.87863518089788
C        -2.25002314519401       1.01959388772186      -1.97385219140694
C         2.18755433546851       0.98017529299629       1.28643497609665
C         2.74878383601123      -1.01377007447036       0.14029132675487
C         3.51272583397486       1.30347800660245       1.44076764848118
C         4.10816048838991      -0.71757117725036       0.27671562050494
C         4.49198769537994       0.43397792332648       0.93607882096974
H         0.40543926215416       0.28962539622043      -1.53698038242370
H        -0.08401073507012       1.50063551090995      -0.32758997887617
H         0.29974825179222      -1.51173441429697       0.18754659691771
H        -0.12053874180107      -0.31112881495745       1.43659598157421
H        -1.76788487061449      -0.93082722630022      -1.17422877794567
H        -2.24769839228667       0.25363764844473       0.05437097125093
H        -3.30928127992067       0.78457154675253      -2.15588659059196
H        -2.18223718997886       2.08356212048005      -1.69540902349499
H        -1.70025482009869       0.88578601571819      -2.91842278624735
H         1.37088381699792       1.60263771109039       1.64529123294471
H         2.38732770392691      -1.95251633419223      -0.26067005012279
H         3.78119973830660       2.22487593329685       1.95654461181815
H         4.83350808508385      -1.40126023157687      -0.15637769293969
H         5.54976483969088       0.67265304823251       1.05222954743388
C         3.27358661889988      -0.18627676702321      -2.70467572706191
O         4.46607859369842      -0.19465241090117      -2.35784428258286
O         2.25474889058546      -0.72440675447735      -2.16901395382867
C         2.91535226091266       0.58715425002861      -4.02030828688601
F         1.92001457686683       1.51185217993569      -3.80664762297401
F         2.45594878867333      -0.27808559133616      -4.97779971199667
F         3.97053321585261       1.25558531170008      -4.55352970848602
