24
C6H8F2N2O4S2 optimized with ForceField in AMS.
N        -0.71994947660910       0.00342988031003       0.02482720578678
C        -0.04739735798585       1.19406719673910       0.00236867790311
C        -0.03655567133257      -1.18123356724024       0.00854272397393
C        -2.18429942585359      -0.00271467976260       0.01029048306410
C         1.34867037290204       1.21836477800596      -0.03565766663262
C         1.36006665360487      -1.19277635599399      -0.02911608676094
C         2.05324102860179       0.01638491881289      -0.05903647486344
H        -0.58818193398263       2.13309761157230       0.00613023290591
H        -0.56913586850560      -2.12504881781816       0.01685850057978
H        -2.58156456518834      -0.90046875249112       0.53164387023073
H        -2.58876173382882       0.89352986084856       0.52882283639012
H        -2.54303743928757      -0.00560672468224      -1.04069506131388
H         1.87900182234815       2.16167270820356      -0.05576311499957
H         1.89880211822425      -2.13157184044628      -0.04402183028593
H         3.13343922989435       0.02369305767121      -0.10829510696360
N         5.78982872406608      -1.16176637694311       4.17482935092442
S         6.07080937416515      -0.93721334512600       2.57933808239772
S         5.22759559651587      -2.58954706661555       4.74226579894499
F         4.60881618313035      -0.87286987234148       1.77191522728609
F         6.47602054957912      -3.70366576132167       4.75614607767502
O         6.81401752057747       0.35168511545771       2.37350516389898
O         6.87609454644456      -2.08269092752740       2.03331351039019
O         4.12770765258331      -3.10151444830939       3.85466523596782
O         4.70955312013670      -2.40619201160207       6.14005510100029
