22
C4H12BF4N optimized with ForceField in AMS.
N        -0.00434538833332      -0.00062474758342       0.00293071578789
C        -0.91415987503808      -1.11474962148424       0.34951403033903
C         0.65973330487622       0.49480481469417       1.22916154000652
C        -0.77986073893121       1.09676950666029      -0.61660666080700
C         1.01821870472393      -0.47888855596590      -0.95261164077987
H        -0.35518971871494      -1.95448673285465       0.82018678630710
H        -1.69849035785301      -0.78155584704417       1.06554750217729
H        -1.42462179956376      -1.50978090813637      -0.55740636261118
H         1.35330705340654       1.33387309115517       0.99667492716562
H        -0.08824903058353       0.86327907268822       1.96662379403989
H         1.25199103502210      -0.31200318206172       1.71648134475033
H        -0.11820918436749       1.95115724553323      -0.88427414361223
H        -1.28513402252119       0.75219655582280      -1.54669933493128
H        -1.56234411266000       1.47501292624523       0.07856367098720
H         1.70544488692711       0.34643759241045      -1.24171533825590
H         1.62755513685696      -1.29804978653693      -0.50907733534172
H         0.54605081470946      -0.86827677638134      -1.88219813286465
B         4.80324542801761      -0.28635951301382       0.10551154760619
F         6.22180234777499      -0.30087297112641       0.04097180956293
F         4.33238580716621      -1.57292584594438       0.48060050259955
F         4.27973232307151       0.05791230001800      -1.16836133141915
F         4.38154638451388       0.67060571260579       1.06680925279343
