60
C16H34F2N2O4S2 optimized with ForceField in AMS.
N        -0.01607029063991       1.99355223894128       0.01344890760926
C        -0.68800303720202       2.90466473979880      -0.96377407946885
C         0.64324108405459       2.90289688264262       1.00069707738884
C        -1.03454229187611       1.15041821412255       0.72067988344606
C         1.01378116312977       1.17310908249153      -0.70325151052951
C        -0.20684137988705       4.31905539909548      -0.70275355482806
C         0.13643478028991       4.31185554746865       0.76001690797827
C        -1.77869530278364       0.13902818201650      -0.18471343030691
C         1.77294892633206       0.16349432955017       0.19075766262364
C        -2.87579667826764      -0.58561549653441       0.60545208265355
C         2.86948069726823      -0.54607376555206      -0.61253862289263
C        -3.62982295327790      -1.58736336489947      -0.27738709738426
C         3.61124245212181      -1.57589059190455       0.24691854876819
C        -4.69360118936743      -2.33789568760555       0.53249788066142
C         4.66439818495608      -2.31957385094477      -0.58181689525094
C        -5.45070451127856      -3.33485189057376      -0.33965005164782
C         5.47718238902020      -3.27581838366057       0.28571797140244
H        -0.49537429867911       2.63119475666843      -2.02671277989971
H        -1.79536686413453       2.91259261016601      -0.84121233119896
H         0.45933517580146       2.61158457473793       2.06038029263687
H         1.74987688889000       2.93209620842593       0.87423726735008
H        -0.56339450150260       0.58909767875655       1.55742701713998
H        -1.79169726515399       1.81166715277836       1.20311958909975
H         0.54912908142172       0.61366236842429      -1.54492234286149
H         1.76133138353509       1.84978021623745      -1.17949737413723
H         0.70607229095863       4.52541983968822      -1.30431354555542
H        -0.98811339230456       5.07478382039076      -0.93646398745225
H        -0.77999024308421       4.49292371087530       1.36435300084434
H         0.90387601257829       5.07830120416284       1.00439917762296
H        -2.23925835767510       0.65675917746419      -1.05209439925880
H        -1.07104994848071      -0.62429599395178      -0.56952620223771
H         2.23660901629329       0.67988891561339       1.05752837892513
H         1.07485017969006      -0.60810445019768       0.57587939932040
H        -2.41218675344455      -1.12593546810612       1.46039560519387
H        -3.59593690842825       0.16028551896247       1.00842829412936
H         3.59644428037519       0.20721100904424      -0.98944723215187
H         2.40924361526808      -1.06033323147856      -1.48506328870066
H        -4.11935056120445      -1.04290790941310      -1.11500638192939
H        -2.90910006393917      -2.31933275734589      -0.70452404364405
H         4.10314760394497      -1.05450876819641       1.09666687765486
H         2.88488517323613      -2.31107628183690       0.65838553439714
H        -5.41860199378452      -1.61286335350503       0.96293717230188
H        -4.20866988007125      -2.88803144608606       1.36849284871087
H         4.16343292901266      -2.89999337487846      -1.38705802551996
H         5.35253584770817      -1.58908911628389      -1.05810710844977
H        -5.97134110643045      -2.80649815940495      -1.16644925370128
H        -6.20778777304677      -3.86594257149212       0.27482320859958
H        -4.75045305497231      -4.08435492997184      -0.76605504107500
H         4.81500326234812      -4.04819117527865       0.73134924769038
H         6.24547690221517      -3.78024319961762      -0.33717744069070
H         5.99042356290531      -2.71974861495687       1.09882693265542
N         7.79781542397372      -0.74732577241118      -0.28237559802052
S         7.50872094072181       0.53249559007402       0.69384472278888
S         9.07524546105702      -0.77273514705769      -1.30323581791595
F         6.96352300919684       1.81798192387006      -0.23027101174378
F        10.46018515604147      -1.13295608522345      -0.43429586970099
O         6.46312624417605       0.16657546897444       1.70795923703729
O         8.77467688924377       0.93630201015091       1.39603116103010
O         9.24231001214869       0.57010862681293      -1.95788244156263
O         8.85807111430241      -1.82539014183690      -2.35268983984368
