60
C18H39NO2 optimized with ADF in AMS.
N        -0.63915244178929       0.29408372458431      -0.07811388403003
C         0.43452663029970      -0.36434665863019       0.77465533546245
C        -1.76266923672198       0.74921016992490       0.84658369519521
C        -1.12230778436403      -0.68631127515540      -1.12286835629159
C        -0.08360735618366       1.53522454875415      -0.77172426241182
C         1.11185589268067       0.55370819777891       1.77502784981111
C        -3.02003902403694       1.25602504842401       0.15883681918134
C        -1.75429104174750      -1.96729693863767      -0.59923497791526
C         1.17679542071491       1.34175037426399      -1.59767832440676
C         2.15596207978296      -0.21119336342302       2.58773997126665
C        -3.88158838974051       1.99489074904223       1.19187295221004
C        -2.25851342869716      -2.82924133326962      -1.76110118731693
C         1.65101900711342       2.72178263400213      -2.07529725484311
C         2.85457438724347       0.71183197822913       3.58552661559161
C        -5.13464576241069       2.60457477533350       0.57100685264534
C        -2.88742518438980      -4.13621824530947      -1.28361765810225
C         2.96319334926547       2.64761250140241      -2.84922600583234
H         1.16377097311616      -0.79694883906261       0.07150156198279
H        -0.06453313835684      -1.19505558288078       1.29517768087244
H        -1.33005414186378       1.58472204218548       1.44515821484592
H        -1.98907241985395      -0.10289421782917       1.50563963684347
H        -0.24974331321996      -0.92144177183417      -1.74998491734113
H        -1.84252576822740      -0.13328846014596      -1.74405098309761
H         0.12565999645631       2.28523190244835       0.02368340842784
H        -0.89861798283388       1.90940869546598      -1.40710495593447
H         0.36930542848061       1.00331352550717       2.45334275523878
H         1.58269057011228       1.41450105323184       1.27403524855636
H        -3.60496341909748       0.44313773295148      -0.31000289548463
H        -2.76092254005444       1.97593217000451      -0.63471665511288
H        -2.59838293324376      -1.73473730195222       0.07151058105567
H        -1.02421979197989      -2.55345419233957      -0.01736143520308
H         1.02381052685748       0.67921346173901      -2.46871663981706
H         1.97915891184086       0.90199585195644      -0.98150395435180
H         2.90549271291980      -0.66204460953227       1.91043819716777
H         1.67506318485791      -1.04862328603880       3.12763250857637
H        -3.25706971862481       2.77792160628671       1.65529145939772
H        -4.16615141587296       1.29699697232087       2.00061279251480
H        -1.41756467608233      -3.05107963459301      -2.44314826061567
H        -2.99656375030866      -2.25480552189359      -2.34940666463652
H         1.75790298541770       3.36999535473187      -1.18906553859522
H         0.86876826719917       3.17764972993606      -2.70928768143505
H         2.12306031494352       1.15675868777245       4.27811696480640
H         3.35135932135994       1.54255560365302       3.06032811465723
H         3.60935718522429       0.17308462229253       4.17815818504654
H        -5.78632888362639       1.83113953879908       0.13276628593804
H        -4.87005949621947       3.31602049889718      -0.22824077362421
H        -5.72251430334345       3.15440517488841       1.32162516889056
H        -3.74845998521434      -3.94343157685956      -0.62387745464305
H        -2.16010218097898      -4.74141758517702      -0.71928440248555
H        -3.24220833401053      -4.74150466906173      -2.13118400490483
H         2.86271110640127       2.03225204112123      -3.75848391711989
H         3.76002544395886       2.20741986843869      -2.22806990078640
H         3.29890652364824       3.65021129821911      -3.15577917792479
C         0.18570065299028       5.30129232206762       2.60383940382978
C         0.10417086443785       3.93167576498628       1.91768329225282
O        -0.85672038158834       3.18196092226936       2.28237095805814
O         0.99350465115870       3.65672418784396       1.05487700563079
H        -0.78195325000504       5.81883105700234       2.51918710647551
H         0.37754908385693       5.16124907976315       3.67887353773492
H         0.98076164794949       5.92232280750598       2.17044770679948
