43
C13H24F3NO2 optimized with DFTB in AMS.
N         2.52718203534136       0.86454849275073       0.26051901914628
C         3.02834650877387      -0.36195910352976       0.99402956520860
C         3.65033475395503       1.29597356482116      -0.64592488010069
C         1.31939574042384       0.54809172712115      -0.58646849974586
C         4.38119453368107      -0.72751743271531       0.38621782428382
C         4.43285725648075       0.02759282061593      -0.93880177261373
C         2.20647802517784       1.95386804023523       1.21493416864074
C         0.08114959984927       0.14254644159425       0.20790786740859
C        -0.95252273468734      -0.45199811388075      -0.75640602855699
C        -2.23159799600545      -0.84448917753117      -0.01302921181647
C        -3.24645516640991      -1.48301717695155      -0.96629343616980
C        -4.52253767300543      -1.88933598844513      -0.23109978958031
H         2.30374651172947      -1.16641002419174       0.85366225284774
H         3.10381055764863      -0.12740700454025       2.05646658485041
H         4.26501763512590       2.01725440627195      -0.10061490395455
H         3.23629024908114       1.77544435939745      -1.53269861799221
H         1.61569648582382      -0.26393474237285      -1.26038131276898
H         1.10717610050625       1.44296439849177      -1.17833603863634
H         4.45676843478071      -1.80526973155888       0.23576220723046
H         5.19368584336058      -0.40662555608703       1.04397877038393
H         5.45338892582050       0.26024371033102      -1.24371658426448
H         3.94577261507698      -0.55135288053298      -1.72725632474703
H         1.43478783649245       1.61342235380229       1.90126454357081
H         3.10330661370608       2.21434301909696       1.77397614504148
H         1.85216116657750       2.81939658949137       0.65700325802142
H         0.33639605077410      -0.61591304612599       0.95047265764865
H        -0.34744787625442       1.00713217296733       0.72565700513799
H        -0.51805179098344      -1.33805742291374      -1.22722397096712
H        -1.18677156047077       0.27539788877397      -1.54125566157779
H        -2.67415393461828       0.04284303435895       0.45461335579763
H        -1.98358874834304      -1.55385827521060       0.78345902937858
H        -3.49525383295281      -0.77339789877593      -1.76298224670251
H        -2.79861473015063      -2.36627799734671      -1.43278307959860
H        -4.99582445629712      -1.01857912811954       0.22564401657194
H        -5.22798149188734      -2.34210910949868      -0.92827237398460
H        -4.29712766603512      -2.61275883795424       0.55365030033838
C         2.10128393679560      -2.70546129152836      -1.24463240445204
O         2.36790784566498      -1.90630508656402      -2.14495062369582
O         1.37464181266247      -2.58340459599473      -0.25673329677707
C         2.91581494029050      -4.08394721125208      -1.31222878030466
F         4.11109924447108      -3.90217059926497      -0.68667805916663
F         3.19385205411227      -4.48640536781785      -2.55786036782111
F         2.30904192921705      -5.09924428351673      -0.68740315941202
