40
C12H25NO2 optimized with DFTB in AMS.
N        -0.87612869921530      -0.10904299911888      -0.35327768571630
C        -0.84262218574663      -1.43808624809634      -1.03862509965291
C        -2.16359159184997      -0.13721039704495       0.40940868485640
C         0.27886264125509       0.06687277669213       0.58604556585537
C        -2.27980688696781      -1.67820529895277      -1.48123579868297
C        -3.14948894571423      -0.87677683537770      -0.49670881811252
C        -0.90905077973718       0.99443247322525      -1.35142543805162
C         1.63882754663792       0.04174875383568      -0.10618939349976
C         2.75641200046923       0.07392662167219       0.93990661841818
C         4.12585739187689       0.06677024609152       0.25333779431304
C         5.26258545868411       0.09485387651247       1.27291096002006
H        -0.53163806519778      -2.18035989551319      -0.29937956056117
H        -0.10452158407636      -1.40461878470876      -1.86093588054878
H        -2.46674650600596       0.88278991648010       0.64741089409581
H        -1.99357823233758      -0.68976459711580       1.33627194894174
H         0.21409496341908      -0.74220545013089       1.32032130609906
H         0.12289218488525       1.01859645746936       1.10308857353658
H        -2.51330399546354      -2.74334301070354      -1.44775182830347
H        -2.43418624701107      -1.32913408214913      -2.50397779065650
H        -3.79302322213406      -0.17243549649345      -1.02728284456288
H        -3.78590991877836      -1.53140747411703       0.10148045522467
H        -0.02817919414957       0.91271124960514      -2.01425809149361
H        -1.81995242179262       0.91467296872395      -1.93909629476888
H        -0.89304383168191       1.94538138580738      -0.82162663498193
H         1.73340414836623      -0.86000324926805      -0.71590755154350
H         1.73998440141473       0.89861233619681      -0.77554788852162
H         2.67035707527660      -0.79679497202346       1.60025802238209
H         2.65858054162377       0.97341708811563       1.55879216882039
H         4.20410592490104       0.93764377529460      -0.40494676721624
H         4.21397003336494      -0.82902870057767      -0.36909555120433
H         5.21741807648266       1.00456213248186       1.87373443811216
H         6.22367187701676       0.06611774105273       0.75943065916124
H         5.19977665827633      -0.76530021733636       1.94140603841573
C         2.62090344149270      -0.38052202222948      -4.71930902388157
C         1.73443442501586      -0.27308332439693      -3.45710253927788
O         1.46007363074086       0.87806950177359      -3.05567746929334
O         1.37541238602882      -1.35215304255145      -2.93599409510550
H         2.63169603373687       0.56541570972381      -5.25711385876706
H         3.63503904883226      -0.62817762391144      -4.40682682376884
H         2.24968381826189      -1.17675887993694      -5.36223726627928
