37
C11H20F3NO2 optimized with DFTB in AMS.
N        -0.29077572361516       0.10700244075650       0.44762200182315
C        -1.25405990721909       1.21325006197060       0.10754001778568
C        -0.55601151562392      -1.07683523854580      -0.42658347817891
C         1.08818177599457       0.65088552578529       0.17021819885652
C        -2.71159564605876       0.78179058689607       0.17074773656965
C        -2.00112854128834      -1.55594705162818      -0.33648187125611
C        -2.96709224305794      -0.43484527498682      -0.71566841856410
C        -0.40457817050950      -0.25053352305488       1.88891452695241
C         2.23786575458985      -0.28011929336969       0.54496545569006
C         3.56155466482884       0.40299024194958       0.19950819782433
H        -1.00467291670097       1.54791702382711      -0.90305795114020
H        -1.06077444584145       2.02273928608483       0.81654827697995
H         0.12557652765324      -1.87549019813376      -0.12708876316021
H        -0.32339096588723      -0.77875461537099      -1.45319518755650
H         1.17015690110033       1.58095698189838       0.73920247913112
H         1.12764295659204       0.88367242626220      -0.89744429977922
H        -3.31311900298750       1.62727137413979      -0.17170088834198
H        -3.00460116704202       0.56856565979995       1.20092493821742
H        -2.21865799410002      -1.91630660599107       0.67238903878545
H        -2.11335312316103      -2.39861388298364      -1.02383425263999
H        -3.99661098684922      -0.77784545894008      -0.59061591252597
H        -2.82174973688282      -0.16677102457626      -1.76747233963216
H         0.16708779465392      -1.15499576821827       2.08238061261435
H        -0.01699044833170       0.58352494078486       2.47285213642361
H        -1.44630681591787      -0.41430412562136       2.14809600929354
H         2.22030781091192      -0.49410434582807       1.61614629367964
H         2.16807829085987      -1.22850013653476       0.00393888815428
H         3.61736907240069       0.61535305649474      -0.86870040196144
H         3.65903808150854       1.33968109416488       0.74806687415525
H         4.39187440872581      -0.24826520046568       0.46993724704131
C        -0.19237441589486       3.31508736707072       3.19592639493128
O         0.30343220034687       2.65754120195571       2.26715303833229
O         0.09431163956977       4.35381655890675       3.73737252007498
C        -1.53082962621477       2.55383183886748       3.77126165202179
F        -1.21012981346530       1.34734016070140       4.30926211357112
F        -2.38401050511262       2.25694181734510       2.74394343820214
F        -2.24699195157420       3.20931029738738       4.68353345752547
