58
C16H22F18NP optimized with DFTB in AMS.
N        -0.59756348486436      -1.00281305273668       0.71944377824902
C        -2.05694771070887      -1.00847936018999       0.30681300050063
C        -0.55079505772799      -0.30997605444689       2.05650503909055
C         0.21215593816673      -0.24771331772287      -0.28839632170356
C        -2.86373560580797      -0.47678540884607       1.49040146020905
C        -1.91390806744988      -0.54914257145862       2.68244194641651
C        -0.11766046113213      -2.42346259221104       0.88023104096785
C         1.69483333295403      -0.14276980528185       0.06414890539699
C         0.07519185389092      -3.16811795040227      -0.43042747251953
C         2.42090146398829       0.68119478618517      -1.00675582923301
C         3.90850544423192       0.80792230391804      -0.68650169475993
H        -2.33937088616386      -2.03088949489827       0.06079245470745
H        -2.17677922131413      -0.38743699904760      -0.58145033574156
H         0.27638914118856      -0.70551105689563       2.64474197744532
H        -0.39179550124159       0.75611306255903       1.87634072693998
H         0.08559726143017      -0.74803567928212      -1.25083448817306
H        -0.22410729149959       0.75241597600090      -0.35988091711904
H        -3.16862328522061       0.55657959325682       1.30666721350260
H        -3.75414621629592      -1.08553323868835       1.64816276528694
H        -1.95410338202142      -1.53035061084259       3.15684958426083
H        -2.13532426332207       0.21244461451662       3.43078961130110
H         0.81795598415656      -2.39788706853474       1.44222244012312
H        -0.87140110991234      -2.92542593962538       1.48345970698745
H         1.81876573390715       0.33842668542599       1.03805558767611
H         2.14552347904896      -1.13653186642156       0.11884243910798
H         0.10540519026244      -4.23278333347124      -0.19979255936865
H         1.00826253699343      -2.89267873002758      -0.92049856307648
H        -0.75003282536190      -2.99736554319732      -1.11686835820446
H         2.29549440809786       0.19849201340903      -1.98136503993264
H         1.97156997738543       1.67802270559459      -1.06505089698384
H         4.37487478088002      -0.17670221305781      -0.64114815888993
H         4.05226518005522       1.30627226593795       0.27276384982034
H         4.40430385576339       1.39275212337765      -1.46065213504402
P        -3.34809728182945      -4.90348121636626       1.92016262466424
F        -1.98153788628495      -5.00048837657615       0.90477723694535
F        -2.85876810359709      -3.28059623300247       2.24488509094466
F        -3.81074463887877      -6.46816428386817       1.58035810620407
C        -4.32927811585551      -4.30495630529762       0.32272746267590
C        -2.16091244136954      -5.60440475329455       3.32235698342934
C        -4.88455651982955      -4.54823167124690       3.13308143651543
C        -3.78915130109607      -4.71277692201187      -1.07455420487048
C        -1.15690521333820      -4.65851786087595       4.03441490718545
C        -5.95357392862372      -5.62228692617843       3.47731012284407
F        -4.41634645933933      -2.95077053111675       0.27047353324020
F        -5.58286842959003      -4.77476199457947       0.39696194377424
F        -1.40536375861210      -6.57345095734318       2.77659502049844
F        -2.89560678585244      -6.18239082995804       4.28660494135945
F        -5.55433122654165      -3.48930258206397       2.63321306911883
F        -4.35958981011094      -4.14110249392924       4.30872452362738
F        -4.72377155945173      -4.52600917205756      -2.00655509270836
F        -3.39090748064783      -5.97182664536298      -1.13869895536136
F        -2.74868658072050      -3.92448068460244      -1.40375776279218
F        -0.23849458750847      -4.20836283980043       3.16225184515296
F        -1.73421083654747      -3.59024503507557       4.58024759185483
F        -0.50368468449035      -5.30275363226264       4.99735010649722
F        -6.59734284505747      -6.03582872255304       2.39119558836197
F        -6.85563332373778      -5.10626500851214       4.31613713190091
F        -5.40943578084542      -6.68175683025949       4.06482447069728
