34
C12H19NO2 optimized with ForceField in AMS.
N         1.74226805353262      -0.03044889993425      -0.48495103764401
C        -0.64184929668924      -0.01899161641950       0.12264525382549
C        -2.07842883623220      -0.02531609248939      -0.41169653338285
C         0.37590748218675      -0.05452496543190      -1.02152552025402
C        -3.09139184895473       0.01606455596982       0.73815600479768
C        -4.52378688870440       0.01932265828649       0.21223946734316
C         2.38042224216302      -1.20612140771324      -0.19707229650342
C         2.36404861021511       1.16835973838465      -0.26399007219259
C         3.67707350620834      -1.20006769886048       0.32287108454501
C         3.66076881198020       1.20967162860855       0.25386673823455
C         4.31859513790648       0.01667194317916       0.54863480087830
H        -0.48577773085616      -0.90513520709599       0.77616631822870
H        -0.47672330200170       0.89911129402820       0.72802064458388
H        -2.24287145222472      -0.94558900040179      -1.01452994158909
H        -2.23046024038956       0.85981148654463      -1.06805384366274
H         0.22050823548690      -0.96955648477155      -1.63602118135067
H         0.21422846497714       0.81537431892604      -1.69692498606496
H        -2.93066656936316       0.93234573448927       1.34707631024537
H        -2.95107910407716      -0.87097826481128       1.39360031834647
H        -4.69852669293909       0.91204175971110      -0.42524421167897
H        -5.23329153983508       0.04870148563796       1.06586806994996
H        -4.71927800229130      -0.89945065527886      -0.38057415516481
H         1.88732016568754      -2.15642626951728      -0.36489458725084
H         1.85825155477657       2.10065234668845      -0.48622998459450
H         4.17889632904183      -2.13171766912748       0.54973038102631
H         4.14978624498520       2.15949785166291       0.42674911668008
H         5.32245098231575       0.03504041768083       0.95263454219766
C         3.18900664504120       0.66707806023592      -3.97471597214773
C         4.47168690467600       0.18003461081731      -3.37863944044236
O         4.59406625709295      -0.99504423354149      -3.07314061980322
O         5.39865289070479       0.95285103374810      -3.19715871455547
H         3.00032380617136       0.14298487919003      -4.93506981002865
H         2.35157634615383       0.45959943511401      -3.27781503472547
H         3.23472959645492       1.76084903039105      -4.16443453244622
