23
C7H8F3NO3S optimized with DFTB in AMS.
N         0.40491776448743      -1.09614758914858       0.49770537564848
C         0.42651574804807      -0.48862802415695      -0.70528195791601
C         1.47982928006239      -1.09211958631081       1.29402338395305
C        -0.80373567716382      -1.82297959532808       0.88638320329839
C         1.53319288263812       0.21585200434065      -1.11077580192253
C         2.60393206148849      -0.35659371668755       0.94694300196454
C         2.63942611866798       0.30254379928915      -0.26570290059273
H        -0.46172928404716      -0.58840541936291      -1.31701583677095
H         1.41210617741832      -1.66188856384774       2.21196344916865
H        -0.71080645297277      -2.14783352425046       1.91887130454533
H        -1.66576510692086      -1.16774560402853       0.76482589566116
H        -0.90331554963661      -2.69803655930374       0.24576387876020
H         1.53505695898396       0.69142204078716      -2.08301003277325
H         3.45576085090766      -0.36117760106461       1.61367555413525
H         3.51596182863551       0.86256178700885      -0.56745090746125
S         1.93855276540658      -4.23169214466919       0.72548080182517
O         2.68273995136462      -5.41848587611284       1.03680599078783
O         2.73171758379458      -3.02962562482200       0.48068995534099
O         0.77359774511491      -3.97016936363974       1.56166498584495
C         1.18695800603290      -4.54380153021726      -0.94655199844141
F         0.30261574957359      -5.53135584603469      -0.92903251356432
F         2.10092475929378      -4.80876187226791      -1.86738206476415
F         0.53050690642233      -3.42797550177219      -1.34010439902740
