37
C11H24ClN optimized with ForceField in AMS.
N        -0.54768970870440       0.10019922563287      -0.08291479628090
C        -1.54699855329072       0.55825785066659      -1.10333158576611
C        -0.89134700615321      -1.29834885390534       0.33856799075138
C         0.78793985235296       0.07885090729159      -0.77499083525906
C        -0.53108392270073       0.99813089380789       1.12491762197883
C        -3.00940401495443       0.46062567145908      -0.63851557259255
C        -2.34762806781488      -1.47327382838963       0.81552264078772
C        -3.34090161880418      -0.96951695473152      -0.22706455882920
C         2.00211289637398      -0.30099586552558       0.10911592161440
C        -0.10918340178323       2.45612077353888       0.86713046007300
C         3.28705504807561      -0.33457787487478      -0.72881057521077
C         4.49519625103888      -0.72019549046006       0.12063505225291
H        -1.46209757809399      -0.06326576379997      -2.02492390195066
H        -1.34586963711663       1.59792558695547      -1.43642361273993
H        -0.24020205245056      -1.63504174702760       1.17350068965836
H        -0.72772975750684      -2.01204660407461      -0.50154253685730
H         0.99733982262266       1.06455237338051      -1.24772577062950
H         0.76115002631647      -0.64059355837854      -1.62661769260259
H        -1.52527254134895       1.04109112482365       1.61064275551820
H         0.13527436563663       0.58273920211645       1.91169898523690
H        -3.67356630092138       0.75352627235204      -1.48061451480829
H        -3.21686269327949       1.16484406296000       0.19336068717146
H        -2.51243960721905      -0.95381986747486       1.78239414067939
H        -2.53700291382243      -2.55387146782380       0.99673687353666
H        -4.36944568929138      -1.00582491392536       0.19238515016483
H        -3.30904835018685      -1.63102184008231      -1.12129305601025
H         1.85763192294191      -1.30449097602262       0.55882746249036
H         2.14067370051755       0.44240537730179       0.92127041657528
H        -0.10578644807638       3.00052670669711       1.83518314446443
H         0.91487386985708       2.52807959034203       0.45081109796799
H        -0.82766264802807       2.97904723141656       0.20527436334323
H         3.46785113200221       0.66707019134114      -1.17686741611266
H         3.17938594473952      -1.07396052053192      -1.55266818558525
H         4.35384202987003      -1.73233304231738       0.55659104388951
H         4.64248825930379       0.01566230682942       0.93966280264727
H         5.40594476276666      -0.73167687292783      -0.51442409815076
Cl       -2.82723105686818      -0.41577314653935      -4.73580502221631
