43
C13H27NO2 optimized with ADF in AMS.
N        -0.52734131222764       0.33866424119875      -0.06810760281671
C        -1.50427395175847       1.13292105531631      -0.92156330190163
C        -0.92116871889183      -1.12110723803051      -0.09099097967669
C         0.83493620253212       0.52501212965886      -0.71704405106608
C        -0.51558556351060       0.82622938790583       1.37164396453867
C        -2.94203877838732       0.95345079030636      -0.47063191152798
C        -2.36326606684067      -1.36498273720794       0.33808914326426
C        -3.34750120993977      -0.52375700409305      -0.47883265995305
C         2.01321358735400      -0.11110793160131      -0.00579684932538
C        -0.12625711109757       2.27699233563940       1.55278368297347
C         3.29030474661910       0.26573049805395      -0.76728323563651
C         4.54730944926666      -0.27135262098263      -0.09219735592300
H        -1.37763229351510       0.72385117135191      -1.93830021263938
H        -1.13094300217994       2.18499302374569      -0.94809087977780
H        -0.20956767866915      -1.66131881763202       0.54933496314456
H        -0.76906534331959      -1.44847515568522      -1.13179856795344
H         1.01960320649466       1.62426868306107      -0.79044883667744
H         0.72488662422991       0.11470432290773      -1.73407474005053
H        -1.52188303624502       0.63934651917438       1.76545103396227
H         0.17510665808430       0.15119410256362       1.89852611625216
H        -3.57330762757313       1.53413564204231      -1.16357491508577
H        -3.10148439800125       1.39986981053761       0.52606075855987
H        -2.48312252096097      -1.16175869825586       1.41488543346435
H        -2.56613310298972      -2.44159337468739       0.20810968959012
H        -4.37092454852816      -0.65788655563035      -0.09228467720043
H        -3.34862994456797      -0.88643013230479      -1.52370844595680
H         1.93014472080181      -1.21140236622291       0.06558276089535
H         2.10621161404246       0.28746715125729       1.01877584697616
H        -0.11851161695430       2.48537732252217       2.63431707601888
H         0.86096798501785       2.51283281526915       1.12585674464094
H        -0.83540774643519       2.96043724754938       1.06581324853679
H         3.32741608152328       1.36624098949995      -0.83975046372526
H         3.22444885083844      -0.11996627401462      -1.80105642828511
H         4.53565920466807      -1.37225658802619      -0.03203383992771
H         4.63866337195079       0.12175134872494       0.93351399873990
H         5.45052056503990       0.02799601876791      -0.64392541315587
C         1.48086233054433       5.41619852972297      -1.72077687760341
C         0.97164667807390       4.07294472518349      -1.18290273506076
O         1.85383327831437       3.28854505657865      -0.70536738777495
O        -0.27418781378983       3.84900220851481      -1.27370498849605
H         2.38457981751650       5.73179796068925      -1.18073799267165
H         1.75006013912558       5.29407119780526      -2.78232309644473
H         0.70139494724516       6.18802052072581      -1.65623520624363
