39
C11H19F3N2O3S optimized with DFTB in AMS.
N         1.10629184188508      -1.26991343958406       1.14565780794332
N         2.84820185684338      -0.00905713667306       1.17901664867475
C        -1.26690802371844      -1.85017404238386       0.83535613436509
C        -1.55027875143274      -0.63032082034072      -0.04693462606730
C         0.18251533966866      -2.31316465385537       0.71491770853822
C        -3.01100320315798      -0.18545208048069       0.07155718406560
C        -3.29156771918202       1.03840577441826      -0.80626460171294
C         2.09002432701407      -0.77593001209309       0.39957851643502
C         1.26511596501568      -0.84693157778649       2.43893627597055
C        -4.74726032811805       1.48650083988639      -0.68814079495844
C         2.36380726887366      -0.05180974373795       2.46028023693937
C         4.14492752868479       0.52929230937478       0.80780098550922
H        -1.48862923331888      -1.61225662860970       1.88019635917830
H        -1.91114277539822      -2.68161733991649       0.53621472867057
H        -1.32445004769534      -0.87607591639989      -1.09037792359400
H        -0.89159326758959       0.19324573333954       0.25106858203177
H         0.43377261180444      -2.56695853552702      -0.31761571585048
H         0.37324352354893      -3.18355579516774       1.35056906725760
H        -3.66739009091093      -1.00925419515861      -0.22838168911195
H        -3.23369331766773       0.05501727610425       1.11682703857391
H        -2.63180069987620       1.85995021808230      -0.50638573950978
H        -3.06871367128869       0.79534768641033      -1.85072910423856
H         2.24770415076202      -0.96931955032097      -0.64635246622044
H         0.61060506246178      -1.16917503250092       3.22931198905099
H         2.84908418737674       0.46281403354661       3.27028503959703
H        -4.98291474582198       1.75255276479567       0.34321202234250
H        -4.92271835882110       2.35705092177456      -1.32038436573679
H        -5.41969889161474       0.68724562893976      -1.00254067055988
H         4.90565440758044      -0.17340480306612       1.15726184453779
H         4.19557406772855       0.62705488750317      -0.27489388886801
H         4.28464735224765       1.49966744724727       1.28179782037826
S         3.59479633038342      -3.16993081043410       1.62596978384248
O         2.40830442942970      -3.45478737014220       2.41867053084396
O         4.46658936240394      -2.15169427705140       2.19112666444226
O         3.32276457269665      -2.98855440266395       0.20200858548862
C         4.58241569097705      -4.73079274104957       1.70576452160005
F         3.89123597997289      -5.74344734659512       1.19365644189694
F         4.88854301085695      -5.02661764018075       2.96283476677982
F         5.71232770749613      -4.60656064550311       1.01792377147461
