46
C14H29NO2 optimized with ForceField in AMS.
N        -1.62728982657885      -0.29772358063195      -0.17438476338123
C        -1.90659969975990       1.11720815661678       0.22171015724702
C        -2.63389150374350      -1.21866926833134       0.44504906785875
C        -0.28566728935289      -0.71820362846530       0.35156775962711
C        -3.35423274784696       1.55823567134670      -0.05620837766629
C        -4.10071170731586      -0.81302024352803       0.20584853024407
C        -4.34419781744907       0.62899944718308       0.63502636159946
C        -1.64744271786762      -0.44682854129377      -1.65566633860077
C         0.93110466552675       0.05997063848919      -0.20800816839877
C         2.23394756775160      -0.45534010427194       0.41769878615530
C         3.45510287382448       0.26639644917009      -0.16356859199538
C         4.75214611490636      -0.26910780749149       0.45399353126955
C         5.97195758704237       0.44526024673953      -0.11962544511062
H        -1.24379075726648       1.82197242165564      -0.32476467648972
H        -1.70786033634251       1.26021529253686       1.30883482172006
H        -2.48817755506988      -1.26292854582113       1.54979992103205
H        -2.49602922876691      -2.25782936801981       0.06764712755833
H        -0.26597410896038      -0.62052068136146       1.46211437093995
H        -0.11960548271788      -1.79951757225535       0.13452102418436
H        -3.50079300574711       2.59121470608395       0.32704407341754
H        -3.55305270463157       1.58173957828869      -1.14873044043782
H        -4.38720677342228      -0.94996021534707      -0.85715000058729
H        -4.76074782282349      -1.47954456553762       0.80229474337959
H        -4.23234671058567       0.71614044586375       1.73842350639590
H        -5.38140709287233       0.92587910824449       0.36855548712591
H        -1.02405963632286       0.32735780554346      -2.15187065869970
H        -1.27481320759443      -1.44945367471717      -1.96242225724838
H        -2.66350247808627      -0.33057872072864      -2.07930347821355
H         1.00249596135248      -0.07479003077075      -1.30704637190090
H         0.84180866026932       1.14173649481851       0.02088777616098
H         2.20308299166409      -0.28956170073768       1.51612085648448
H         2.32833802557686      -1.54724938960921       0.22637681286601
H         3.37072242130083       1.35648143279846       0.04224767004426
H         3.48320524673925       0.11470431387124      -1.26531397657447
H         4.84405527855076      -1.35796314914168       0.24754950111129
H         4.73306986931153      -0.12021580973090       1.55583996972730
H         6.02699362399792       0.29265958200391      -1.21863856518316
H         5.91942323994478       1.53328300163738       0.09822430052788
H         6.89412589771964       0.03427035605571       0.34255397141291
C         0.42423928392449      -3.52161546371936       4.02973826731467
C         0.88322690209657      -2.20308762835694       4.56700742447270
O         1.38457364537398      -1.38131832275633       3.81806131292515
O         0.75911043715962      -1.94430915176512       5.75340725735257
H        -0.36240348005898      -3.35848565958895       3.26306108250873
H         1.28110425058119      -4.05454016786357       3.56623018040886
H         0.00823139866883      -4.15285206680485       4.84431193441530
