60
C16H30F6N2O4S2 optimized with DFTB in AMS.
N        -0.11311532415903       1.38161491473522      -0.32208090277345
C         0.43639674793362       2.43899198316612       0.58324126772073
C        -0.78231466698835       2.17177407090752      -1.40809760931474
C         0.99884582238076       0.56993111410259      -0.93235263520215
C        -1.10579921579839       0.53262912784159       0.42014092327563
C         0.92173468533923       3.55204087519084      -0.34312574365201
C         0.12735201314243       3.37196439351965      -1.64727745293911
C         1.74490044242653      -0.34992530684279       0.02805527532350
C        -1.70886735862149      -0.58466031802549      -0.42651058238797
C         2.78392662873585      -1.14557190323922      -0.77468813777101
C        -2.79423372401352      -1.32266303304666       0.36274696951141
C         3.55651941562843      -2.11339059803708       0.12512015880620
C        -3.34454437012657      -2.48707568929688      -0.46811197839770
C         4.55349231310334      -2.93563544213397      -0.68920529087024
C        -4.42488939177215      -3.25332561215516       0.29125348641376
H         1.22245861086677       2.01683771139263       1.20813023095425
H        -0.38045276237971       2.78751825095658       1.21922903864956
H        -1.75949593350382       2.48604299324480      -1.03497553789047
H        -0.91148435212928       1.54546442869958      -2.29063275799793
H         1.69439951294850       1.27727581383239      -1.38722225239609
H         0.54931282246395      -0.02279323153763      -1.72549527148765
H        -1.89075660895731       1.20865959904225       0.77174393207826
H        -0.59122670326783       0.12330105636913       1.29271023066886
H         1.99427563294189       3.46410561628228      -0.52650774221978
H         0.73493044190769       4.52596795648551       0.11196019929357
H        -0.46960901905391       4.25554208872332      -1.87854875563563
H         0.79934262729786       3.18790363871361      -2.48741694103847
H         1.05541883461579      -1.05228948058319       0.50211709934580
H         2.24330835561012       0.22371058898228       0.81605175667031
H        -0.93601630343145      -1.29997940681984      -0.70992556342360
H        -2.13786565880682      -0.17406463071698      -1.34300269218064
H         3.48004828348610      -0.45273243040816      -1.25890258020002
H         2.26980852746017      -1.70942925726306      -1.55823742885438
H        -3.60383261377797      -0.62990818229249       0.61830123506554
H        -2.37022359158788      -1.70381645438599       1.29847907733280
H         2.85059869865714      -2.78622373744439       0.62335219260440
H         4.08810811736860      -1.55052230804061       0.90068438264873
H        -2.52606667409576      -3.16630503281171      -0.72381614744398
H        -3.75973503932531      -2.09883294300728      -1.40326600144794
H         5.09038709102261      -3.62393381226803      -0.03651762428066
H         4.03347773288612      -3.51325265643154      -1.45369306104705
H         5.27730575441423      -2.28299920991691      -1.17899952715548
H        -4.79742641554906      -4.07155382906191      -0.32442627932573
H        -4.02211249013595      -3.66924887223563       1.21600463047937
H        -5.25986814837108      -2.59649573913723       0.54006231899182
N        -1.18855949291935      -2.21535744600386      -4.76490755335571
S        -0.31813143463054      -1.37202359252649      -3.75808762682325
S        -0.81600915604979      -3.79505757670467      -4.87769186406238
C         1.30273092264330      -0.84562472220863      -4.55505028420390
C        -1.71146405974518      -4.59546745754292      -3.43815609373007
O        -0.98236805654081      -0.08922142037569      -3.57164658004900
O         0.12713489981126      -2.03059721553698      -2.53644455154731
O         0.57891332111338      -4.10142237432896      -4.69874643559629
O        -1.49997489427583      -4.29746916412627      -6.03424404374432
F         1.70175660591494       0.26708833740125      -3.91865076952329
F         1.15098085851539      -0.55930612650895      -5.83444133934602
F         2.24880253279301      -1.75120559331304      -4.41348129100205
F        -1.97507997738651      -5.85774026374211      -3.73230631429109
F        -2.86059454912909      -3.96195993606552      -3.22145322900235
F        -1.00018279329926      -4.56034000186517      -2.32336325102362
