34
C10H21NO2 optimized with DFTB in AMS.
N         0.47709878133547       0.30629092058185      -0.01797738859565
C        -0.12264792115325       1.05886954741816      -1.16560593666056
C        -0.58849585862628      -0.66152081781171       0.37586399662426
C        -1.58877440019264       1.23931076794564      -0.79322108190222
C        -1.90519221718656       0.09345753486023       0.18516822144211
C         1.73595797806510      -0.35998670725303      -0.47997403073363
C         0.76302072094506       1.25911501441138       1.08908275399090
C         2.42874136125838      -1.22068098945507       0.57134336739396
C         3.79473978355258      -1.63284813986020       0.02050905738704
H        -0.02012773823432       0.43969914006800      -2.05929851811955
H         0.44136861703578       1.98938051759935      -1.29562938073847
H        -0.42403084615344      -0.99344830290694       1.40126356977289
H        -0.52546261002991      -1.51952308612211      -0.29747481601813
H        -2.21510969713651       1.18748111290778      -1.68521601676846
H        -1.75623443449530       2.20808860377977      -0.31850533866248
H        -2.26734916923269       0.48599866425876       1.13758143845011
H        -2.66717198117161      -0.57731199669017      -0.21577968508918
H         2.42442447355039       0.45155277531551      -0.79379131311801
H         1.47624269740917      -0.97019617768739      -1.34917041404248
H         1.50614693588243       1.97338680891135       0.72129003382637
H        -0.15198178270602       1.78310191397570       1.35404592950020
H         1.13528486065633       0.71532158203125       1.95334514787118
H         2.58212316164038      -0.65486393010149       1.49358068291234
H         1.83087310422381      -2.10692095506490       0.81119290006235
H         4.34177934058409      -2.20522350757492       0.76911239954690
H         3.67844489124557      -2.24511750655562      -0.87447473166470
H         4.36819319823412      -0.74145656997609      -0.23726236805824
C         4.20742081471335       3.92800194435855      -1.50762235051105
C         3.28845968550265       2.74944986422171      -1.11436136973912
O         2.09457724785140       3.04114536408129      -0.85878912281515
O         3.79998653311437       1.61358630703499      -1.07301411698357
H         3.77235040750701       4.45103491045550      -2.35827083462337
H         4.26637501514691       4.62096162544611      -0.66904638209720
H         5.20310735056402       3.56981236259667      -1.76047643213946
