45
C11H24F2N2O4S2 optimized with ADF in AMS.
N        -1.60837778844649      -0.21347368651827       0.05090257802510
C        -2.10530921230588      -1.30957626755141      -0.88102395862884
C        -2.70613203473898      -0.11884634488881       1.10344960135040
C        -0.29710128403918      -0.60297083314045       0.70302343017654
C        -3.60559466093567      -1.09100372068395      -0.97475944484061
C        -4.00951464017144      -0.55802449738436       0.41930270411946
C        -1.51020413448970       1.08422715623178      -0.72311880128928
C         0.86260887896894      -0.76415069610904      -0.26020159921029
C        -0.89410634824795       2.23871234802772       0.04213873712576
C         2.11367681852039      -1.20059514573258       0.50743455391139
C         3.26306895595352      -1.57993560429249      -0.42306299945163
C         4.49948707230763      -2.04190772414910       0.34275059953508
H        -1.56306171306551      -1.24238562415341      -1.83211925797874
H        -1.86561398776244      -2.26029080963339      -0.39298388950483
H        -2.42872417986082      -0.81881785445575       1.89974831308212
H        -2.71796157024693       0.90392356524437       1.49917739789792
H        -0.08871685039445       0.15586220264497       1.47288208002132
H        -0.50099139784956      -1.55966315692255       1.20564990745940
H        -3.86103949890453      -0.37310089790093      -1.76973023724074
H        -4.10191717498097      -2.04279853985438      -1.21049533579913
H        -4.45904160092552      -1.36109554617053       1.01960089156181
H        -4.73374657324576       0.26550667657767       0.34592142071318
H        -2.53635827209095       1.32359182091606      -1.03749163946724
H        -0.92323141433436       0.86085918860789      -1.62529261338665
H         1.07556182772545       0.17051283730754      -0.80874705964121
H         0.62034935801030      -1.54951840394633      -0.99358265147928
H        -1.42825970764158       2.46232038815195       0.97685217747484
H         0.16468264074706       2.06216413807993       0.27505361687319
H        -0.95091575308112       3.13682682856757      -0.59054667904595
H         1.85953918809893      -2.07055951981104       1.13556125931298
H         2.43552308218973      -0.39238360833534       1.19159836695620
H         2.91856586641464      -2.39079241133513      -1.08942262088245
H         3.51843931142765      -0.72022417879177      -1.07011142526342
H         5.31658562800720      -2.31291832170789      -0.34230555390320
H         4.86926793670688      -1.25011590866839       1.01486865389811
H         4.26597693076792      -2.92544860469868       0.95783730038510
N        -1.44917996198601      -5.33970450728422       1.40033072275061
S        -0.06027697190774      -4.69170871831159       0.93297176197873
S        -2.77452736209390      -4.44889171776186       1.43142724611941
F         0.36475644402046      -3.73907119427968       2.24015808998003
F        -3.21509878252372      -4.36093792229818      -0.18265731851403
O         0.95486389684199      -5.71745212656401       0.89549652004551
O        -0.15228009688226      -3.71567135319263      -0.15097705014383
O        -2.57833069716055      -3.03848827114340       1.77016698974442
O        -3.84542198469473      -5.19536376268590       2.04769965577271
