45
C11H24F2N2O4S2 optimized with ForceField in AMS.
N         2.01262753893130       0.42558190483176       0.06252819462036
C         2.24291475656702      -0.85908689871325       0.77600287229282
C         3.13392616796765       0.54445123522999      -0.91858732149656
C         0.70888497371287       0.42203374876043      -0.67042983076439
C         3.69435879770500      -1.24120203517018       0.57136743813891
C         4.01080364535940      -0.69265958422721      -0.79491333384444
C         2.07549147618955       1.56020714071019       1.01968567144470
C        -0.54044955809201       0.27756765788002       0.23026096212534
C        -1.80218459867911       0.08711604505362      -0.62180532224369
C        -3.04860350529498      -0.07633832270357       0.25663010505651
C        -4.30999239213105      -0.21599979384154      -0.60376285092810
C        -5.55393219095298      -0.38782680920494       0.26312484297199
H         1.62267091442436      -1.68047544551871       0.34809132668030
H         2.00645426343995      -0.80282217993438       1.86307577724878
H         3.77041068821602       1.44137105976272      -0.73299586086694
H         2.78603599532120       0.63852192789488      -1.97353237085569
H         0.70420891523382      -0.41088252128283      -1.41201200174157
H         0.60296251790850       1.36482628218157      -1.25509963176789
H         3.84402663718702      -2.34188019972814       0.61780270478485
H         4.33026951202683      -0.74296428292505       1.33639221097317
H         5.09043384678409      -0.44969962438221      -0.89975484793889
H         3.72122130287636      -1.43595620039492      -1.57121765707915
H         1.33183436465910       1.44986298516471       1.83682713515710
H         3.07595254927857       1.61483624199677       1.50594666979462
H         1.88809554468728       2.52655918140458       0.50129531933809
H        -0.43144483414352      -0.59170093164414       0.91242656935471
H        -0.67148137448853       1.19542971823928       0.84132817900507
H        -1.68594969873873      -0.81734369512641      -1.25885956615937
H        -1.93184737795734       0.97132682573544      -1.28458093115403
H        -3.15313385184868       0.81051193040846       0.91978335926828
H        -2.93345337148516      -0.98227097804766       0.89194303660771
H        -4.43486146870679       0.69106128845580      -1.23467279968418
H        -4.21283218117509      -1.09908043006860      -1.27247473415802
H        -5.68545165018142       0.49218231535379       0.92829931370017
H        -6.45026798818826      -0.47848336386778      -0.38639245373346
H        -5.46914752165343      -1.30671006496224       0.88157845543050
N         5.04221535687513       0.82385742398022       4.17871409208501
S         6.49457408991213       0.10122304505749       4.39462273056083
S         3.67580316062864       0.18308034025992       4.81055038948765
F         6.57672842019984      -1.27284757982097       3.44171771999094
F         3.76737555934684       0.21343961206969       6.48223360903548
O         7.59173916863467       1.04770782440619       3.99910527223005
O         6.66140009430482      -0.29524641394738       5.83473710760535
O         3.52779071807685      -1.24227790178133       4.35836248104750
O         2.48755337856226       0.98380960765590       4.36126857937956
