35
C9H20BF4N optimized with ForceField in AMS.
N        -0.40708081461892       0.16879655415786      -0.07662458717140
C        -0.97769824404676      -0.88578972743473      -0.97083231596408
C        -1.46160391434084       0.41354585998637       0.95574622309332
C        -2.44001601543077      -1.07233260628631      -0.61329850070608
C        -2.50477976799848      -0.68032687640283       0.83589223173163
C         0.83507754384149      -0.33507162101563       0.59418101038738
C        -0.16050588763945       1.41640098484934      -0.87010690125338
C         2.01554084549063      -0.62279676316538      -0.36329640695273
C         0.43541340358451       2.58341524852557      -0.06111441607542
C         3.16769578035623      -1.29276737605116       0.38244884797915
H        -0.48413681521880      -1.87453030713105      -0.82732979165530
H        -0.88083202864045      -0.64464959378289      -2.05425959355656
H        -1.99147966548457       1.38082942337276       0.79752608801119
H        -1.06253216147614       0.44466735916438       1.99588443763159
H        -2.77575418515928      -2.12112814144143      -0.76848542195227
H        -3.06832261121058      -0.38251355483613      -1.21994789411597
H        -3.51855282095420      -0.32036237546927       1.11779108992843
H        -2.22064754469936      -1.54535818943830       1.47558539203863
H         0.60032766658553      -1.26938185006175       1.15645951237568
H         1.18229385532491       0.39179437658540       1.35982589576925
H         0.51496568186813       1.21219146315165      -1.72986671802355
H        -1.11426074604353       1.77049227216868      -1.32534615217079
H         1.70329201362572      -1.28779226196058      -1.19518146211505
H         2.39969062977837       0.32229331706692      -0.80050434920186
H        -0.16761648450327       2.80813356151373       0.84242187752640
H         1.48124049092816       2.37096172712270       0.24070965143534
H         0.45149617687408       3.49362483661930      -0.69696077169414
H         3.53431075196397      -0.63240662535011       1.19743511657215
H         2.83763619610240      -2.26122114570909       0.81603172714866
H         4.00435496515382      -1.48734664980842      -0.32087506309477
B         2.50378084636371       1.01935222402390       4.81979763887743
F         2.03934840098146       2.33643006476572       4.56038040825054
F         3.91494313385035       1.03724392064000       4.97892509419250
F         2.16223472807148       0.17294633935997       3.73319490821387
F         1.89902581882044       0.52890991957082       6.00750778604023
