29
C7H16BF4N optimized with DFTB in AMS.
N         0.85713500923487      -0.31975341204251       0.10605825508916
C        -0.37971051269950      -1.12615800550673      -0.12323552348588
C         0.37497321347604       0.87668459750737       0.87216198945349
C        -1.49117241102449      -0.10489326047428      -0.35943551127868
C        -1.00139210446399       1.19544981942968       0.29891074832571
C         1.87343978932294      -1.06292700207060       0.92355902165345
C         1.43761895715439       0.12504696143419      -1.19053027770032
C         2.44134225339501      -2.28902672517507       0.22892489299342
H        -0.57024151065171      -1.71049895404945       0.78007380431016
H        -0.23001251877078      -1.80140332420390      -0.96586285269303
H         1.09542198623044       1.68684379430053       0.75634558488375
H         0.31553882133202       0.59585723724704       1.92508657332725
H        -2.42377328841685      -0.45623622711674       0.08537112102612
H        -1.65993374036808       0.04129745645263      -1.42835883098341
H        -0.93875615200994       1.99867303536886      -0.43780992115677
H        -1.67502995577315       1.51855784969632       1.09419958043243
H         2.67408423407496      -0.35454958044513       1.14804991823304
H         1.37826165926377      -1.34880827563992       1.85515259205048
H         1.70127643718743      -0.74554970883710      -1.78614306192518
H         0.69968784194460       0.72187905874680      -1.72120680486908
H         2.32073352162293       0.72771129904319      -0.98267081886348
H         3.06516079216169      -2.81645608897659       0.95015158825043
H         1.65879848260146      -2.96698558226857      -0.11135996139690
H         3.06830837742148      -2.00894574949762      -0.61577311219383
B         3.63786432966139       1.94838879867600       0.78417832006547
F         4.67711365077835       2.77003839180509       1.09038956336148
F         2.68827718117473       2.57902482629782      -0.06380873168463
F         2.93170022381764       1.52516822198255       1.94180872568929
F         4.06619073942235       0.77170883681611       0.11313531188606
