28
C6H11F2N3O4S2 optimized with DFTB in AMS.
N        -0.16296503491718       0.89576378985788       0.45359352345639
N         1.89509390911217       0.33526422373232       0.18223514616119
C        -1.51477670537137       1.36462922468729       0.16373452701557
C         0.75808888577453       0.60078162521628      -0.45887001189855
C         0.39676788511512       0.82990512997951       1.69980787344731
C         1.69904119404669       0.48305375287555       1.52895939538148
C        -2.53673972891926       0.28087664347704       0.47884298964570
C         3.18632699453398       0.16213162844700      -0.46169546428836
H        -1.68211363967091       2.25831512613417       0.77031440466077
H        -1.54537995994538       1.64500956785043      -0.89116061072413
H         0.61948805225410       0.60250227450730      -1.52634112394878
H        -0.16202632780307       1.06225777314802       2.58888103576602
H         2.49432954771492       0.35510165886557       2.24191620120258
H        -2.34333419871429      -0.61127127385604      -0.11671559939334
H        -3.53310452489196       0.65255140693937       0.24469749199800
H        -2.49959329642624       0.01409085526352       1.53472320816296
H         3.79303790695091      -0.52710841988375       0.12295554016507
H         3.03378369550466      -0.22201373763859      -1.46810419891347
H         3.67025124584841       1.13976714088956      -0.51434081749222
N         2.20829493910287       3.20452283302241       0.14030769102984
S         1.55854323218164       3.38067163448692      -1.29446146086992
S         1.61997094198297       4.05377502210279       1.34992578597664
F         1.98001902003439       4.84305362098419      -1.80149150607943
F         0.05856547632613       3.53974543785706       1.47018552341403
O         2.25370093971140       2.47225538887423      -2.16262600361641
O         0.12442846299904       3.36991224729114      -1.34712970822494
O         1.50467405457564       5.45725044865423       1.15771451936952
O         2.22299488739013       3.54194485503463       2.53832636369645
