50
C14H15F18N2P optimized with ADF in AMS.
H         1.60550774899287       3.25677838462033      -2.44137757549829
H         0.04854514513413       3.49258420026429      -1.61411199921526
H         0.18525072100438       2.22333001909145      -2.88346092207394
C         0.70618518768700       2.74808159459430      -2.07306373473916
H         2.65069704092549      -0.78178085352202       0.25798128245291
H         2.19910848107679       0.36149216404976      -2.24575950104484
H         0.32639432253318       2.72615486274930       0.72777180795667
N         1.09799926931137       1.78115262887310      -1.05078554294148
C         0.86264920847708       1.91192706742651       0.25982141907112
N         1.45426394357651       0.89387602707910       0.89545103101502
C         2.08474527507508       0.09386089761795      -0.03286644931722
C         1.86524442937697       0.65320609551416      -1.25793116400066
C         1.45104243415955       0.71238310993380       2.35483318581690
H         2.24056360618503      -0.01897027284498       2.58095049138868
H         1.74433649107442       1.67816097186727       2.79134897622102
C         0.09552235137231       0.24856252115058       2.87215702520044
H        -0.15772035740547      -0.73160563503250       2.42931186836622
H        -0.67972786673931       0.96314946127657       2.54579154555383
C         0.08955377706328       0.16341249201186       4.39698813815559
H         0.86518140057969      -0.55044230665904       4.72876043210104
H         0.36929375239629       1.14909266951759       4.80804175184638
C        -1.27102697159759      -0.25511657525601       4.94720582393682
H        -1.57293051913657      -1.23968507381912       4.55665425524346
H        -2.04694292294565       0.47416272509511       4.66610286298241
H        -1.25150771919950      -0.31779741342907       6.04527410648156
P         2.37291163121544       5.26714116856637       1.31802354427552
F         2.17101022258029       3.83588024499503       2.21338595286457
F         2.02799177263761       4.38275279819433      -0.08666380186546
F         2.70365919255306       6.15657085108192       2.67658614169316
C         0.42971959721835       5.55124328283610       1.65888865953050
C         4.28568255285484       4.73943354342964       1.24822513575806
C         2.53235514566974       6.83327562439636       0.09208009045204
C        -0.20962168995191       4.90339425798147       2.93676098154815
C         4.71466760630096       3.58549660190843       0.29435995148424
C         2.93047005215523       8.24278457575232       0.62318744309158
F        -0.36188645584622       5.05262503638483       0.61981094775304
F         0.14057071705592       6.88267278616156       1.78015117193590
F         4.65884010493868       4.30693062399626       2.50529266526621
F         5.11901240854716       5.78814975856055       0.94613622234105
F         1.32507981686739       7.00743624610116      -0.55921684100531
F         3.44683587485936       6.53479851638505      -0.89651174146418
F        -1.45553730404617       5.41585071168442       3.12241148624929
F         0.50292838417174       5.12260413027014       4.05443792494374
F        -0.37504684434984       3.54687246276376       2.79017010904738
F         4.03811177090293       2.43217481754699       0.56511150922941
F         4.52415485335990       3.88490522521985      -1.01124853460729
F         6.03905516859517       3.32253051645970       0.46320011298713
F         2.95300700406709       9.11999749793909      -0.42272252165943
F         4.15887088581564       8.23966154951017       1.18408142283993
F         2.04486549125032       8.71014031990419       1.52981317165157
