28
C10H15NO2 optimized with ForceField in AMS.
N        -0.48304409472706       0.01154722705356      -0.39496752584065
C         0.94457369456581       0.03919779828094      -0.73731323494170
C         1.79424056561935       0.01784073080822       0.53664760961176
C         3.28368644424633       0.04816412324958       0.20936500493389
C        -1.15698416860327       1.18577001792956      -0.19586735810106
C        -1.12692900014981      -1.18860792104011      -0.26170560892761
C        -2.51354487195345       1.17705213420656       0.13839143031047
C        -2.48302894310283      -1.23269393266818       0.07162408297875
C        -3.17805623421558      -0.04103662814330       0.27108945349308
H         1.20340447156543      -0.83448734996876      -1.37679900380406
H         1.17939628107682       0.95112867735212      -1.33104593344456
H         1.57001147597257      -0.90298055815389       1.11758342965065
H         1.54394745888555       0.89982323052963       1.16518758810354
H         3.56410953702931      -0.84095485253276      -0.39460101344581
H         3.86967988194559       0.03693486518662       1.15165694479560
H         3.53624529139733       0.97115835771849      -0.35469856023618
H        -0.64679427148080       2.13703416795527      -0.29171397577874
H        -0.59292022170671      -2.11988488926213      -0.40963465177032
H        -3.04401558770852       2.10760832948540       0.29382396226792
H        -2.98967170900820      -2.18355563338531       0.17498848098641
H        -4.22886681578246      -0.06150591116324       0.52938795427653
C         6.08707397469797       0.25238025931083       3.74489238715202
C         7.19117559001187      -0.54028986910181       4.37048171230002
O         8.18156930849078      -0.82555557001934       3.71725176625638
O         7.10579649963556      -0.90496013812268       5.53197223406040
H         6.47780262388995       1.23548147524286       3.40769144422911
H         5.68425606432726      -0.29995274040444       2.87068779283336
H         5.26466172808121       0.42295062205626       4.47240670015078
