49
C13H16F18NP optimized with ADF in AMS.
N         0.03751492437100       0.64224654818079       0.31308003400350
C        -1.01666791423140       1.56356679476365      -0.29551469695611
C         0.07113939606262      -0.67434942368234      -0.43889001497675
C        -2.37952567607761       0.90674540791637      -0.39451841110501
C        -1.28808846768012      -1.34540980466914      -0.53811334168153
C        -2.32006092503500      -0.40916576469135      -1.16544277014895
C        -0.24939640643629       0.42775518623162       1.76792378394659
C         1.38148397054036       1.29623511353119       0.18757406238207
H        -0.63463158056366       1.83492834756783      -1.29114256041455
H        -1.02256117595138       2.47184455588759       0.31776746128552
H         0.81709302582822      -1.30686308417563       0.06709717024028
H         0.44852502448014      -0.42717695262385      -1.44407364260695
H        -3.03827354256466       1.63416720046240      -0.89338675270013
H        -2.81184578005662       0.75394446196856       0.60929464069342
H        -1.62603544782693      -1.68481958185793       0.45610996843398
H        -1.15714114562058      -2.25737717117076      -1.14499230728048
H        -3.31011327551818      -0.89189078886186      -1.18698315132001
H        -2.04054807408638      -0.20698873786674      -2.21611141095447
H        -1.21329989320679      -0.07505516192408       1.88532907716411
H         0.55222508966639      -0.18855724631559       2.19445536795609
H        -0.27506884899163       1.40838773896074       2.25778244031962
H         1.58117266411394       1.48074352752596      -0.87494333366450
H         1.36159883984301       2.25024061449024       0.72236514355222
H         2.13733578551026       0.62132599808457       0.61001047593455
P        -0.32496913166914       5.54212901172523       0.89624472785005
F        -1.23666775742109       4.47509113693349       1.83414942990068
F         0.49076299277179       4.18759553228768       0.25702490538508
F        -1.09728839971127       6.87984989356534       1.49257770994006
C        -1.77594995788366       5.36674608369370      -0.46336675977763
C         0.89064694019048       5.61481568847652       2.47470894445569
C         0.85779087608424       6.59973257219789      -0.31400531410040
C        -3.22378535071190       5.03416494616051       0.03070506828130
C         1.82446562962142       4.40797869971027       2.78341098218709
C         0.81058265454773       8.15852365001671      -0.34526334797302
F        -1.50679179560825       4.36742188081656      -1.39592923206857
F        -1.93118991660485       6.53516178950797      -1.16429644347241
F         0.10970403013474       5.73926185956412       3.60564682467013
F         1.72039370902260       6.70946311534085       2.46418797742440
F         0.63155448698233       6.19612025088528      -1.61611597789984
F         2.17237133414483       6.27445409575169      -0.04757662930684
F        -4.08240564254455       5.13180987142226      -1.02750609319993
F        -3.64862423292228       5.87602999846336       0.98906498497617
F        -3.33607147671530       3.75354027789755       0.49198202425067
F         2.50954103365422       4.62990201131713       3.93450185945508
F         1.11143236009060       3.25042739432732       2.96459275986842
F         2.73459939204465       4.17806551773246       1.80619866790618
F         1.73377429080816       8.60743588952360      -1.24699352291654
F         1.11218268817499       8.69994950199998       0.85429747467084
F        -0.39702922954921       8.62292126655031      -0.73189286710917
