41
C11H22F3NO3S optimized with DFTB in AMS.
N        -0.30835733396213      -0.54801866130771      -0.32681166743500
C        -1.07314529263374      -1.47023421114176      -1.23237695870281
C        -1.34672453324760       0.44508568813661       0.09374541844496
C        -2.45754193789623      -1.60442483760700      -0.60959942057613
C        -2.63352020807111      -0.35786788649359       0.27177409528730
C         0.80414661555018       0.12018224787207      -1.08143872209499
C         0.19219091688827      -1.29150375488330       0.88072985564934
C         1.56790242555729       1.15895313224111      -0.26615353634327
C         1.36819933098904      -2.23102037163955       0.61203477157965
C         2.65349437405355       1.78378671001221      -1.14302245944215
C         1.61253667900753      -3.10040272896352       1.84426007548780
H        -1.12196788725515      -0.99938498573479      -2.21557450580713
H        -0.54206968635860      -2.41482131589936      -1.32647378092465
H        -1.02937908066942       0.95700109292714       1.00212155388472
H        -1.44969933740166       1.17144764923929      -0.71533022652541
H        -3.21504150855649      -1.64994408844169      -1.39352440482334
H        -2.53612262297020      -2.51469778811136      -0.01143673477215
H        -2.77444450269123      -0.63616132819188       1.31835343410318
H        -3.49246334312315       0.23893382141191      -0.03913224954836
H         1.47141001582182      -0.66762675973484      -1.43259154419048
H         0.35184695228582       0.58942747529563      -1.95772284950581
H         0.47473000575216      -0.54590070925587       1.62879849247663
H        -0.65453294588817      -1.86035374532563       1.27246381116689
H         0.88915069162386       1.94233641326447       0.08512436871091
H         2.03434325464938       0.69815052499544       0.60894317189278
H         2.27009222970421      -1.65422770113063       0.39618243788217
H         1.16714091958512      -2.87112551590166      -0.24860743437636
H         3.34857183633755       1.01952761183482      -1.48815452624412
H         2.20917423824664       2.26695377152354      -2.01317733004383
H         3.20537771616986       2.52903017361330      -0.57110415950104
H         1.82671708030002      -2.48317793908952       2.71797950246033
H         0.73967970272914      -3.71844781816150       2.05838783753993
H         2.46435561555150      -3.75446503756407       1.66279842314682
S         1.17931507407690      -2.07556677283751      -3.81384513277979
O         0.88222166296479      -3.01652325076244      -4.85824600035099
O         1.33649791865914      -2.65269300843398      -2.47803326154222
O         0.37359575160139      -0.85833830810533      -3.81261221522901
C         2.88261473257580      -1.43629991984020      -4.16594467507558
F         2.93467833551071      -0.74757277252478      -5.29729580454142
F         3.78005753006210      -2.41018808071745      -4.22196510817435
F         3.24018512497110      -0.60904969706663      -3.16773845346305
