52
C14H18F18NP optimized with ADF in AMS.
N         0.84008821512571      -0.31177033257482      -0.23575310979993
C        -0.18106164723526       0.79796055793012      -0.05774215662454
C         0.20015779862847      -1.65178608929580       0.10463894867203
C        -0.84347523886764       0.80031605755170       1.31011552670471
C        -0.46241308391769      -1.66296983195871       1.46961112172836
C         1.25783870360578      -0.30207304597862      -1.70411849037403
C        -1.49341385141966      -0.54867987518308       1.61037157746024
C         2.03890010792949      -0.06422039920463       0.62709287335445
C         2.31835889711875      -1.30837698955676      -2.09355270406083
H        -0.93571939983656       0.63348108794260      -0.84329493573650
H         0.34142747330744       1.74400843901967      -0.26731327055251
H         0.99154174529213      -2.40367912028229       0.04745311972000
H        -0.53539558886487      -1.83840726710736      -0.69413288458118
H        -1.59183665969760       1.61094763568825       1.30432218433369
H        -0.11322385843162       1.06036044906270       2.09492669756666
H         0.29958067943762      -1.59786975710904       2.26182678290126
H        -0.92361003106566      -2.65786979321270       1.58245808552471
H         0.32811012568343      -0.47291935642934      -2.26891230366683
H         1.59215783147163       0.72956439260603      -1.90123683133746
H        -1.92471093469732      -0.54633031319881       2.62373997758398
H        -2.32723000779557      -0.71958469398177       0.90424878652830
H         1.72363658483333       0.04903053479440       1.66736271360081
H         2.71144155483782      -0.92440269125488       0.55408217594090
H         2.53096523872051       0.85325227103611       0.27898663038994
H         2.49286722552992      -1.19305750154005      -3.17457532809423
H         3.27875597603599      -1.13568944110150      -1.59027700675196
H         2.01346861520594      -2.34769145322319      -1.92294842336070
P         3.91997971541771      -5.90755071700771       0.43649892292350
F         4.74347905725578      -7.08885993971811      -0.37153611048531
F         2.75239311886024      -6.95229230770569       0.98501629456548
F         5.01922449745114      -4.75865770227095      -0.06736084678570
C         5.04709016044448      -6.42490457900804       1.96435601891997
C         2.85771067032531      -5.67102304845380      -1.31171489370958
C         2.89423123436739      -4.34459825206555       1.31485530589501
C         6.55911218047479      -6.03921533876442       1.94015363613739
C         1.29663964432986      -5.59361224444051      -1.42567578993955
C         3.21646274574586      -3.59032085406478       2.64473370278573
F         5.02835842873927      -7.79515953915554       2.07592357752834
F         4.56182594480504      -5.94495619998877       3.16633342998065
F         3.13238196393743      -6.76322675689914      -2.10312587969972
F         3.30381996797186      -4.56072136831362      -2.01830131047879
F         1.55638421070069      -4.66914282278112       1.45499761344685
F         2.94480718492029      -3.31046310512176       0.36326277228019
F         7.18323814928344      -6.60918731414768       3.01298469732765
F         6.74186780724679      -4.69781784835829       2.03963308427437
F         7.17849916777466      -6.47602404440845       0.82388376975166
F         0.93274428569577      -5.75535284330931      -2.73126589385278
F         0.66680812185479      -6.53599758310854      -0.70245466422595
F         0.79255404236886      -4.37091510214206      -1.05923560475260
F         2.78438878291678      -4.25211483289739       3.73255265770061
F         2.53167406892559      -2.37729979137745       2.65342596872246
F         4.51852168715170      -3.28214473402956       2.76607028102078
