44
C14H26N2O2 optimized with ADF in AMS.
N        -0.20357411100371       1.21190778398008       0.81355938107102
N        -2.22585372658210       0.90034305276946       0.08657775736682
C         1.25688758515260       1.33665044601719       0.86590049539021
C         1.91740962837595       0.02186775921988       1.26992283177649
C        -3.37584061313185       0.71256242038301      -0.80720822448273
C         1.86434300774312      -1.04171271761740       0.17819110481580
C        -3.73214804967761      -0.75021360291727      -1.05502663186158
C        -0.94832300244731       1.06722646007739      -0.29122773200440
C        -1.01849476638514       1.09072580729967       1.91686149481061
C        -2.29061428344138       0.89201496592516       1.46203314514556
C         2.31616109343086      -2.40437965247329       0.69874445034869
C        -2.72356983945952      -1.49969091714656      -1.94387630803054
C         2.24371879441152      -3.49519552732519      -0.36603727480536
C        -1.69522928118903      -2.30270605145822      -1.14795518374906
H         1.47792264197860       2.14410426849434       1.58141217495275
H         1.59083299392476       1.66893558798383      -0.13000458980595
H         2.96339307683052       0.24016338556832       1.55074389864316
H         1.39978960549689      -0.37413705933349       2.16084356501674
H        -4.21279935802436       1.24944786978225      -0.33563045615986
H        -3.13639186608858       1.23159759369295      -1.74957715098384
H         2.48147980530539      -0.72972568175974      -0.68815072551034
H         0.82214627261356      -1.14736753448412      -0.16122032374584
H        -4.72955592261931      -0.73757916583272      -1.52848612723676
H        -3.81762401507742      -1.25655924246333      -0.07537905064451
H        -0.58810125598131       1.11561548198488      -1.30967971835409
H        -0.61881477960305       1.08598700537604       2.92132992379787
H        -3.20473830345668       0.66352581775086       1.99073593849057
H         1.64544427194461      -2.66339792021491       1.53631474240845
H         3.34506784780450      -2.32713646160562       1.09813070440455
H        -3.27578295252563      -2.18184944631378      -2.61325093325821
H        -2.21830852379646      -0.77875516839817      -2.61715779461539
H         2.88500267792484      -3.26098291552159      -1.23176267224088
H         1.20932395050974      -3.60583786383129      -0.72667335684974
H         2.56464317016241      -4.46883916903398       0.03713164392790
H        -1.21219072613867      -1.70735013789100      -0.35972104179290
H        -0.92373029041562      -2.73090993342579      -1.80722131890341
H        -2.19379704387840      -3.12757238838900      -0.61510622325238
C        -1.75669936738278      -3.23367563272604       3.29588103100565
C        -1.78841382971535      -2.07313916148329       2.28726152146356
O        -2.93694796359944      -1.65017979751918       1.94575761195827
O        -0.66957071378498      -1.65182643184379       1.86039689993453
H        -2.59846017682761      -3.16831681149801       4.00035575701222
H        -1.86189001983938      -4.18303432526069       2.74522673600054
H        -0.80126091543718      -3.26467633623784       3.83874891634579
