32
C6H12F6N2O4S2 optimized with DFTB in AMS.
N         0.51344301311374      -0.63852848010141      -0.17736744746547
C        -0.95146997435300      -0.66337209013924      -0.42261267996269
C         0.87501031111375      -1.76376617377723       0.73103068897256
C         0.90061558760808       0.64793283214862       0.46154337796952
C         1.22444473187110      -0.76811016070414      -1.48004077316700
H        -1.21058398541683      -1.61008685266680      -0.89307441710373
H        -1.47506281714353      -0.56423674968110       0.52657435797141
H        -1.21703479755032       0.16257723230709      -1.07996829886288
H         1.91015782310301      -1.64654147831326       1.04044617303072
H         0.22004151332563      -1.73707894643151       1.60007663625932
H         0.75816405941213      -2.70335883174138       0.19594207582624
H         1.97619945812955       0.63282303633729       0.63516721904247
H         0.63967279576435       1.46703562710938      -0.20588049554309
H         0.36954994814930       0.74918326081699       1.40615677847392
H         2.28613014290623      -0.59002048219771      -1.33026021488457
H         1.07518397277701      -1.77296781713284      -1.86794150637159
H         0.82582195321076      -0.03216572709199      -2.17556817275446
N         4.60984011020074      -0.82888939228993      -1.63412057453357
S         5.12449622833120      -1.72095848559009      -2.88345877395967
S         4.25596102542913      -1.62229035191744      -0.29871129710427
C         3.56350264981468      -2.25951551600646      -3.77521306624332
C         5.80969179196881      -2.32707539780544       0.49889165856177
O         5.73901354773585      -0.82149145120351      -3.81652234026025
O         5.79992183193953      -2.93711183866857      -2.51996269441279
O         3.36307475528641      -2.76182492243044      -0.46246787914723
O         3.79533708201152      -0.61223143603423       0.64757028308380
F         3.83683390366850      -2.57254127370299      -5.02727917981098
F         2.68746723768775      -1.24279942393126      -3.77753297210415
F         2.97174894148350      -3.29139586307567      -3.19410135417041
F         5.72022966738389      -2.13575657368931       1.80732390429629
F         6.87855728421659      -1.70268791149014       0.04686125010403
F         5.90783811182093      -3.61662576760528       0.26286035267004
