55
C15H20F18NP optimized with ADF in AMS.
C         2.63426188356930      -0.86841475009957       1.31108702404158
C         1.83731451920626       0.01333284753894       0.34859371430807
H         0.37551027952751      -2.18607027469768      -0.02294258142450
H        -0.56277442851379      -2.00114419190659       1.48743684958156
H         2.01511907142919      -2.99220255150999       1.52378851639059
H         1.45689402983274      -1.95136372914306       2.82926332287010
H         2.99196191168945      -0.29143024104999       2.17612420594768
H         3.52130187081980      -1.26955096009872       0.80117589040007
H         2.05936309495662       1.08839917938891       0.39614290652426
H         1.94270354899604      -0.33073385114305      -0.69075298438854
H        -0.94765511376112       0.27172598974444       2.30607537744447
C         0.06143861976661       0.53346772536827       1.97518398675762
H         0.77208489682116       0.24530667458026       2.75647879302005
H         0.14198156885207       1.60736635600517       1.76444985844938
C        -0.52584617049595       0.21859196986207      -0.40955234905193
H        -0.36366886052850       1.30379818785732      -0.50218688282276
H        -0.12641661504937      -0.26177519052642      -1.31681582805444
H        -2.25093875949197      -0.26861153904869       0.83646105932645
H        -4.30776810914548      -2.43652879927795      -1.44098750688200
C        -2.47059122273010      -1.35438595187794      -1.01187147407605
H        -2.22392311357612      -1.21029735039992      -2.08004507388348
H        -1.93404018010884      -2.25319335572384      -0.66750874433010
C        -3.96962862490620      -1.57944003855494      -0.84270173986984
H        -4.53842673247884      -0.69078769327218      -1.16224681159262
N         0.38520604875247      -0.21764678893932       0.71775487420128
C         0.35951809325942      -1.71556825469212       0.97128089701672
C         1.64626542387884      -1.98311742467865       1.74786689642857
H        -4.21178537910999      -1.79332469360995       0.20912234749233
C        -2.00445421408159      -0.12589494132770      -0.22607188990062
H        -2.59283651601989       0.74897449221037      -0.55139170242230
P        -2.86512042144335      -3.86965716824851       3.11615696485417
F        -4.26113250585340      -3.01443068748283       2.80880878075366
F        -2.25078244006711      -3.37614090557444       1.61077940595771
F        -3.37805705691704      -4.35887918648412       4.61672573447036
C        -2.27295995557920      -2.12404367782611       3.91865437693514
C        -3.82570131830591      -5.43863305463695       2.36734465683906
C        -1.10937283091831      -4.83554675565596       3.32026656058375
C        -2.95590537716415      -1.66128808961801       5.24697775465587
C        -3.92298136591737      -5.61287756495632       0.82445416635877
C        -0.73616792976539      -5.45831724504870       4.69242796416970
F        -2.55916285438542      -1.10717266250978       3.00094294764936
F        -0.91839098153795      -1.98449730443702       4.18311793343723
F        -5.13473832592210      -5.36647381699908       2.79177362208079
F        -3.34278175528197      -6.62657894693250       2.86452200756433
F        -0.04577725194591      -3.99319190918130       3.01237626546762
F        -1.01417721969037      -5.84899393754264       2.39620821275856
F        -2.57502379742154      -0.36593783417094       5.50253228996915
F        -2.54710448693722      -2.40895888827639       6.29271609864225
F        -4.29879660984544      -1.68246445523203       5.18130955110246
F        -4.54268065911982      -4.55019641824136       0.25294867912479
F        -2.71135939258018      -5.76417459766907       0.23513578021042
F        -4.65725464146327      -6.72295905399604       0.53641862134287
F         0.50821111318768      -6.02223215780517       4.61714115958497
F        -1.60006433872038      -6.42198033325890       5.06466942312849
F        -0.69309093416462      -4.50596544829331       5.65565947425691
