42
C12H21F3N2O3S optimized with ADF in AMS.
N        -0.00361791151196      -2.26667822883348      -0.49528413259624
N         2.08574275116809      -1.70642779351196      -0.61623894919566
C        -1.34003464094454      -2.49980583502535       0.06859850265058
C         3.40668371350708      -1.20765055027376      -0.21645716556276
C        -2.25618120823342      -1.29417407250567      -0.11704230855402
C         3.56564433315565       0.28069152221126      -0.50998835284688
C         1.02620903365723      -1.76745843516821       0.19933561853709
C         0.40748348424059      -2.53365346971524      -1.78465278546659
C         1.72440187178692      -2.18086348723893      -1.86141578007147
C        -1.78940734746248      -0.04348710728864       0.62666802163180
C         2.61089086640406       1.17715229951542       0.27690354602893
C        -2.77712441883973       1.11177496506204       0.48372513042469
C         2.84607662647905       2.65748968347855      -0.01316056332253
H        -1.74130522526682      -3.39638057183136      -0.42504400776798
H        -1.17830754145731      -2.73178367998127       1.13368123009180
H         3.50222973667887      -1.44453377541635       0.85436786210251
H         4.15220118011723      -1.80767137760011      -0.75798843807295
H        -3.25331589490570      -1.59203821078467       0.25324493444734
H        -2.37211258131592      -1.07099109011529      -1.19369657690766
H         3.44088392752537       0.46220046717771      -1.59342978465591
H         4.60935585017698       0.54660253525986      -0.26412447338310
H         0.99812444451337      -1.56950258599088       1.26942621160843
H        -0.25230372563100      -2.98124295503189      -2.51680295543304
H         2.43510309729941      -2.25912744212018      -2.67438204487485
H        -1.64089186150519      -0.28913435160188       1.69348043440046
H        -0.80621077286809       0.27450951853328       0.23780182317225
H         1.56666051673713       0.92208862298627       0.02466936993482
H         2.73051895849181       0.97928023038134       1.35731960585759
H        -3.76535927191232       0.83762643444086       0.88609255668775
H        -2.91080204833798       1.38897785303256      -0.57458263260776
H        -2.42680619786215       2.00226139867644       1.02572441814945
H         2.69885255864379       2.87791016086622      -1.08289339574541
H         3.87399084605326       2.95275526982689       0.25204446462184
H         2.15322792961607       3.28985839898707       0.56117610410824
S         1.53652936899851      -3.58859691805099       2.94481486186541
O         2.68551748010525      -3.11915914216753       2.13830705131371
O         0.33026911030702      -2.72652615089982       2.79551607357996
O         1.82252879524169      -4.05522742994281       4.29638705290686
C         1.01942619522951      -5.15248347610598       2.03968141462818
F         2.01139980628463      -6.07566015536153       2.03750453818825
F         0.70729210210513      -4.88690338256778       0.72413565418337
F        -0.08116465976911      -5.71366394210419       2.60442478544347
