40
C12H8F18NP optimized with ADF in AMS.
N         2.00049574479497      -1.30584450108769      -1.23965330453529
C         3.04164406235916      -1.02934107693823      -0.42595818402701
C         0.88193840187173      -1.89596337772781      -0.76098268439938
C         2.09366980030534      -1.03128248956052      -2.68635998238328
C         2.97140716892917      -1.31635107454059       0.92361429738456
C         0.76382360599592      -2.19248844229353       0.58050072765655
C         1.81779902846575      -1.89516046011536       1.43939622165758
H         3.92616389776811      -0.60520544337346      -0.89441496639801
H         0.11191871585544      -2.13123454849004      -1.49215577218633
H         1.18936526292908      -0.49604577329759      -2.99930670741404
H         2.97865881126937      -0.41592320528509      -2.87428801005720
H         2.19206161560820      -1.98984660301194      -3.21129390626622
H         3.83616177478324      -1.10315283193596       1.55100107160482
H        -0.14184308690541      -2.68192629298461       0.93594784466002
H         1.74840483481290      -2.13574504821866       2.50113910226836
P         4.39707139042599      -5.63386935163628      -2.17556009879434
F         3.60731695022235      -7.06802596436038      -2.44181712346888
F         3.97642957877016      -5.09387554751486      -3.69706273819049
F         4.82130904840966      -6.05791405881759      -0.61765289025828
C         2.65987894039753      -4.97464363555342      -1.43776803277580
C         6.03045198425029      -6.53938661535742      -2.81936739850954
C         5.28718772590886      -3.82980884986726      -1.96109847035929
C         1.58952453600595      -6.01536266154742      -0.97584221741150
C         6.23436360831167      -6.73212150920167      -4.35084057778248
C         6.04336686729316      -3.39887386291910      -0.66610061480920
F         1.95212873694609      -4.17615187609373      -2.34077611296740
F         2.87029574527783      -4.19130547713180      -0.31325613549925
F         6.04582495544581      -7.81069998880685      -2.29076778072067
F         7.17842747736391      -5.92693512742833      -2.36169010235187
F         4.30844096123578      -2.83417617316179      -2.12778362360149
F         6.17521597722368      -3.61069137998660      -2.98295186280018
F         0.56793410321397      -5.33200556430049      -0.33625613396134
F         2.08009436233796      -6.90350146740968      -0.09368069109497
F         1.02342352849660      -6.66223397135124      -2.01243724891159
F         7.35451670794846      -7.48309619319328      -4.56199760068195
F         5.18932541137627      -7.38109787725532      -4.91310203400152
F         6.41146747539425      -5.55429894560840      -4.99588118195360
F         6.43351235521002      -2.08115910140896      -0.79507492954452
F         7.14784806381611      -4.12667035813488      -0.44535828527609
F         5.26213932017471      -3.45636768699218       0.44187055706112
