58
C16H22F18NP optimized with ADF in AMS.
N        -0.61860691924568      -0.87714057526325      -0.49501525359228
C        -1.84891895214586      -1.28360147283835      -1.32826108820317
C        -1.13783417482635       0.14974437214344       0.52124547792162
C         0.41637653428083      -0.24900420466988      -1.41351887859383
C        -2.89006172448760      -0.21896735262266      -1.03418491702865
C        -2.65508431992029       0.06686176537046       0.44833524179446
C        -0.04836609321142      -2.07426934115861       0.24795268896250
C         1.69451398035064       0.18223349717647      -0.71758284807087
C         0.47306823711648      -3.17266835584861      -0.65023817890686
C         2.56850674899992       1.00639334551497      -1.66928006786890
C         3.89524403438688       1.40224490115271      -1.03053080867462
H        -2.17528518601628      -2.26304539197613      -0.95141699690477
H        -1.55590944023806      -1.38818879067658      -2.37875890040679
H        -0.70827194254734      -0.06832421792936       1.50692815782504
H        -0.78788183792286       1.13576398341287       0.18656836595943
H         0.61667972215169      -0.97692824262417      -2.20759002711006
H        -0.09251661877521       0.60801617601515      -1.88130840333564
H        -2.70923864417446       0.68398370293096      -1.64158057635597
H        -3.90298469633402      -0.58061034046387      -1.26032953046017
H        -3.03451247491240      -0.76435607163514       1.06667235573022
H        -3.12281610556242       0.99675414159206       0.80268790565105
H         0.74418255472185      -1.67749773680254       0.89868317025320
H        -0.86862516508441      -2.43027754230744       0.89156871301551
H         1.47907278064745       0.78198261363367       0.18577260719431
H         2.26683963414518      -0.70338713783414      -0.39293390864171
H         0.79041951741373      -4.01240758754646      -0.01390489428758
H         1.34316758542759      -2.85659525105400      -1.23990757295168
H        -0.28150463597840      -3.54995410788813      -1.35221404949978
H         2.75495947889148       0.42305596084588      -2.58461094868390
H         2.01414276991024       1.90977562949285      -1.98079477384658
H         4.47623983563066       0.50979358074746      -0.74867625743735
H         3.74000186107824       2.00816823367939      -0.12287711926034
H         4.50649486980520       1.99127395359200      -1.73004700715286
P         0.22612660666623      -3.10495696420861      -5.16382569208789
F        -1.20553285519086      -3.91651364897022      -5.37680121000640
F        -0.27868928499867      -2.46963884577986      -3.65925422581041
F         0.79797731608252      -3.69677451175616      -6.59358222784425
C         0.75146255634045      -4.72385907713009      -4.16531221136282
C        -0.74687449478010      -1.54591964126137      -6.05316713392656
C         1.94990478342290      -2.03493080169862      -5.03819927240785
C         1.06158430114990      -6.02481689534149      -4.96646654401931
C        -0.59690742728559      -0.01720845843511      -5.73172704077174
C         3.37646167382485      -2.52169122639719      -4.61858395567613
F        -0.27658228093655      -5.07655455272897      -3.30617838813888
F         1.84793743295239      -4.51268317881780      -3.34991929528669
F        -2.09492079295637      -1.72704483920745      -5.78117132177199
F        -0.59246733018078      -1.63461740423619      -7.41468573938377
F         1.74504656492581      -0.93215535636201      -4.20662021324656
F         2.13819457121270      -1.54098932049221      -6.30736131815426
F         1.27910155446806      -7.04744783474221      -4.08407023143632
F         2.17560809743863      -5.89612130015635      -5.71874378243477
F         0.03320669509817      -6.38052830655009      -5.76286847473501
F        -1.58005847577207       0.66127028949331      -6.38895031822413
F        -0.77756405311964       0.23222221184495      -4.39540697450704
F         0.57291949862401       0.53041262371609      -6.10787322111692
F         3.51004482331785      -2.60000594858729      -3.26365915685332
F         4.29567153198405      -1.60298773921739      -5.03641357668419
F         3.70026695593711      -3.70509545063870      -5.16820248424577
