54
C16H36ClN optimized with DFTB in AMS.
N        -0.00534403343513      -0.02815408366486      -0.05007992294911
C         0.86724109843306      -1.01949699578489       0.67325296314671
C        -0.84301682499963       0.69603014467520       0.97428844468502
C        -0.85847826000555      -0.76176572372382      -1.04542434039976
C         0.81988555286261       0.99179542393805      -0.80007240005006
C         1.85598417521075      -0.41206447832221       1.66693288555843
C        -1.90758854165581       1.62856970158389       0.40425174770259
C        -1.83628130324349      -1.77663059572439      -0.45533915594298
C         1.94157963756973       0.42488592863918      -1.66344452804660
C         2.79997774642926      -1.50598849113052       2.17729407268145
C        -2.40821478106740       2.53912197454278       1.53406891199957
C        -2.69220233408246      -2.36779290960327      -1.58294202414232
C         2.62680518152733       1.58890415311146      -2.39311835853270
C         3.78463261041824      -0.93363943707460       3.19481687281629
C        -3.49272281274943       3.49011259331880       1.03505507350446
C        -3.68534483036190      -3.39231774106858      -1.03885322218548
C         3.79893923191208       1.09570248419192      -3.23798303923465
H         1.39769244098212      -1.59529435933796      -0.08964720856017
H         0.19789240007865      -1.69901697796420       1.20626318385638
H        -0.14122100002302       1.29260532678625       1.56737429261872
H        -1.30218297851987      -0.05899616496400       1.61625169449976
H        -0.18057302426177      -1.27143573908675      -1.73435278061048
H        -1.41166690081468      -0.00554564825482      -1.60735774813214
H         1.22965585711199       1.68219832923259      -0.05204409086987
H         0.12694121169923       1.54941509640901      -1.43364880930022
H         1.32102885621018       0.02635122239897       2.51132505275195
H         2.44239790711461       0.38261411273473       1.20491630856203
H        -2.74531342527316       1.06243803397083      -0.01605164373884
H        -1.48985004609036       2.25515975218352      -0.38698834208143
H        -2.49181516993831      -1.30111042480888       0.27767698698394
H        -1.29747652737279      -2.58552456569064       0.04468443752053
H         1.55690127615846      -0.28929726802510      -2.39868539144810
H         2.68524655273992      -0.08766058060558      -1.04863305711261
H         3.35205611985407      -1.93655322113447       1.33419006565939
H         2.21678881278770      -2.30978683385088       2.64090849093369
H        -1.56342711040635       3.11562742451595       1.92255080067823
H        -2.80414479980309       1.92441717371677       2.34923509643137
H        -2.04086303117945      -2.84542007686782      -2.32232065112087
H        -3.23677545271764      -1.56197530333215      -2.08590210722237
H         2.98715245398327       2.31189337711856      -1.65575870118120
H         1.89892422578819       2.09555135764078      -3.03488671943876
H         3.24973699970555      -0.52263359475375       4.05125070134803
H         4.37797375062970      -0.13839709889668       2.74337307774941
H         4.45704414385243      -1.71690241381169       3.54474409395215
H        -4.35155892906343       2.93269081375395       0.65691885580446
H        -3.10735486984489       4.12136391005499       0.23344554460535
H        -3.82595207548590       4.13088852730132       1.85114764990419
H        -4.35628206284352      -2.92727098375645      -0.31579786121027
H        -3.15923314535429      -4.21212534096577      -0.54845574688338
H        -4.28142855074753      -3.79989720446349      -1.85495019702462
H         3.45898625853011       0.38002118352191      -3.98814106158156
H         4.54615762845545       0.61122081339415      -2.60831113133857
H         4.26736662236396       1.93755388876889      -3.74740450429374
Cl        1.41028630053221       2.83818984266382       1.79413648527876
