31
C7H13F2N3O4S2 optimized with ForceField in AMS.
N         1.11068879161656       0.37431700807653      -0.38122296458521
N        -1.11269223720532       0.37007388421945      -0.37860399300486
C        -0.00032126043253      -0.24005958173768      -0.83212549084707
C         2.49389706251046      -0.02722774328416      -0.62155234081650
C        -2.49549619464902      -0.02452690610442      -0.63407368555674
C         0.68792414951117       1.40741342656560       0.37498349941011
C        -0.69184052215242       1.40510900104867       0.37627315951583
C         3.07165529318182      -0.69543219714331       0.62174139744185
C        -3.09324509319246      -0.69412577522881       0.59833603466053
H         0.00069011703045      -1.12735017615373      -1.45336878430837
H         2.54055102465390      -0.74218384645072      -1.47202743188611
H         3.10034848040490       0.86512504371211      -0.88917433591420
H        -3.09505158466783       0.87123855743561      -0.90500550365549
H        -2.53638062826671      -0.73701192362267      -1.48669624686950
H         1.33321558318590       2.10596781989915       0.89155597863938
H        -1.33793887112148       2.10306317902527       0.89248761262095
H         3.06652218078074       0.01245201210897       1.47705768412510
H         4.11644362103875      -1.01455363738278       0.43148657779756
H         2.47039656333404      -1.59190702340445       0.88353786515277
H        -2.50360323565522      -1.59794809515423       0.86281557347439
H        -4.13987007879949      -0.99882104080429       0.38682419689329
H        -3.09061371593103       0.00773369164527       1.45901464828311
N         8.18067429653494      -0.45261234906966      -1.39160670598030
S         8.23031033178436       0.79873797924615      -0.33822848174920
S         6.89617513899728      -0.68582089341900      -2.37805788659921
F         7.23196483203395       0.46492479445234       0.96360053854682
F         6.93670142168468       0.43863873694235      -3.61698205832877
O         9.63788388030467       0.98658188733097       0.15113666881057
O         7.75382377532809       2.05672888914032      -1.00893832515195
O         5.61888358189962      -0.51031024529937      -1.60889739680791
O         6.95199585935723      -2.07002618038947      -2.95819915451087
