70
C20H30F18NP optimized with ForceField in AMS.
N        -0.08610755418539       1.47835483542901       0.02565516145073
C         0.51818709002778       2.40718658488173       1.03134635182379
C        -0.79609812635741       2.36884314393653      -0.94213736490806
C         0.99079431626122       0.72283931585488      -0.69410526754722
C        -1.06478486113668       0.57029320848967       0.70713196771532
C         0.00061923435268       3.80817045198367       0.76025934593837
C        -0.32601243245794       3.78971527759203      -0.70598613696561
C         1.78245431698185      -0.26945371118954       0.19269051181278
C        -1.75633972525082      -0.44669593157765      -0.23253854612353
C         3.00738303186485      -0.81101740852515      -0.55495984506787
C        -2.87939302367521      -1.19118293584262       0.50019265588269
C         3.79821028537214      -1.79477619096233       0.31560103667327
C        -3.55483462018043      -2.21451313915794      -0.42025575917127
C         5.01849779008579      -2.32868516164765      -0.42894215688602
C        -4.67165753088460      -2.95756901338318       0.30690057960534
H         1.62854474617593       2.45392989585618       0.95068148244101
H         0.29425056154502       2.12182598547702       2.08484156276651
H        -1.89953109649366       2.36542187267189      -0.78298171960451
H        -0.63083591310970       2.08489702701783      -2.00661227286908
H         1.70840190675641       1.44593644315306      -1.14754823880326
H         0.56530364907441       0.15564149775676      -1.55156191452497
H        -1.85224452399956       1.18242230134052       1.20589929895216
H        -0.56784307693290       0.00680080703766       1.52775291535550
H         0.75733291837077       4.58650845979508       1.00093928045395
H        -0.92472038087543       3.99014074899584       1.35090522773251
H        -1.10931906814607       4.53617645605232      -0.96176882636496
H         0.59244944698911       3.98835469106153      -1.30182471372228
H         1.13534683360511      -1.12822564991317       0.46884391132807
H         2.12126541139711       0.22251131066984       1.12809204955514
H        -1.01845828862006      -1.19476370806281      -0.59001600691573
H        -2.18591560265654       0.06820512585747      -1.11726637825308
H         3.66875916902964       0.03676040163037      -0.84017074290765
H         2.67283675628819      -1.32603696801468      -1.48262462116743
H        -3.63859279036876      -0.45831260019260       0.85239098842378
H        -2.45602889646891      -1.71522232487117       1.38552964501956
H         3.14823067356279      -2.65024360097995       0.60209816533934
H         4.13843090710627      -1.28490194546913       1.24331221800827
H        -2.80361200130596      -2.95338588640498      -0.77533823194109
H        -3.98478294901199      -1.69644605065697      -1.30521574592987
H         5.58108325094251      -3.02400052953441       0.22782282562706
H         4.70328155366452      -2.87804303032814      -1.34157360505701
H         5.69132459136546      -1.49312703698428      -0.71728875177011
H        -5.14128054715001      -3.69010445155306      -0.38291359842068
H        -4.26385427918381      -3.50563045566014       1.18291411496825
H        -5.45036402118386      -2.24362462314687       0.65044418164643
P         6.34113301958370      -5.88686258363598       4.52034665621798
F         5.10832330364620      -4.69271974843269       4.35234069654119
F         7.73145731068028      -5.14725037698047       5.22003470266970
F         4.87994499895241      -6.65647050527862       4.03782464344913
C         5.88052691893134      -5.67828764017786       6.38655597569307
C         6.87200434304008      -4.84559663233864       2.97780554394421
C         7.04123275462397      -7.62486669170951       4.09471142719459
C         4.48895244803659      -6.20391765885032       6.80165317698523
C         8.25860472648166      -5.14801265292885       2.35429537357708
C         6.57033987744143      -8.81735691340533       4.94787598833796
F         5.90786042081257      -4.32659495024982       6.71026668968036
F         6.82472428190008      -6.29944842386457       7.18878620664894
F         6.88833799608820      -3.49486569836137       3.31286977983211
F         5.92706209393433      -5.02599150521478       1.97936704518051
F         8.41991962474894      -7.57075016170568       4.19503601998114
F         6.71588723506739      -7.93021082070326       2.78338067345641
F         4.28377018645430      -5.91860788838623       8.13995978758090
F         4.39719814176608      -7.56900044403924       6.64239581679147
F         3.48024987503065      -5.59565577066174       6.07722618579311
F         8.54787072614402      -4.16484142224261       1.42394519214837
F         9.26860889290656      -5.14178140104950       3.29741697760853
F         8.26702458775313      -6.35489628909773       1.68600533665615
F         6.81726677558588      -8.61420756440659       6.28811633695908
F         7.27515377213936      -9.94350793072558       4.56031889999132
F         5.22751934796699      -9.07804001033553       4.74642976508290
