53
C17H29F3N2O2 optimized with DFTB in AMS.
N         2.23920867780712       1.14924733661660       0.64613553397190
N         1.88167955177018      -0.77681086810390       1.53445227250787
C         1.50989045668829       2.76978767547728      -1.05189078987667
C         2.10585413578239       2.57177108335975       0.34594487020166
C        -0.22425315526796      -1.89251676661711       2.11893130907581
C         1.28136070335911      -1.80847383577924       2.37997102457725
C         0.13724623503235       2.10897406166752      -1.22653758258027
C        -0.56731880893415      -2.08667640390456       0.64066527214755
C        -0.97671052245081       2.84811272452044      -0.47856544037884
C        -2.08260019708535      -2.02708399494626       0.42481279278369
C         1.57350526884881       0.51401677790761       1.60691253583956
C         2.98462541099947       0.24187780858858      -0.06074530032510
C         2.75358235575033      -0.97535635949510       0.50005034022483
C        -2.31737229319876       2.12583967466692      -0.64114119738245
C        -2.43553518288269      -2.11266638659936      -1.06313435688524
C        -3.42191487648165       2.82042586924027       0.15158659981359
C        -3.94171198998695      -1.98664229171904      -1.28510931553888
H         1.43071974773022       3.84622187788233      -1.22846371865725
H         2.20391853231080       2.35972551676559      -1.79211010325783
H        -0.68685013696510      -0.97387726502296       2.48713751331529
H        -0.61667462616767      -2.72512879098279       2.70890321301275
H         3.09773866823903       3.02958827059568       0.40169454443416
H         1.46687201583433       3.00650097121093       1.11779759262561
H         1.45043798340011      -1.52355839353159       3.42192897075114
H         1.78685340406628      -2.75208365610075       2.16160269802429
H         0.18683477766028       1.06936414533638      -0.88436019223380
H        -0.09785262128523       2.09098007774039      -2.29577399706762
H        -0.17514079082316      -3.04683874750170       0.28667755712542
H        -0.09314173082451      -1.29498247666390       0.04909190452216
H        -0.73171124691505       2.91056967379266       0.58427080856864
H        -1.05698453575667       3.87011654740546      -0.86426907937286
H        -2.46528739567629      -1.08703368168691       0.83557296021953
H        -2.56298839576178      -2.84863837549426       0.96615973693273
H         0.92928965531286       0.94649205686254       2.35974143098513
H         3.61107917285211       0.52956195837634      -0.88663995651406
H         3.13835971696942      -1.94912707449948       0.25248957084423
H        -2.58866311329633       2.08822008310296      -1.70238893346917
H        -2.21012909439797       1.09504162321417      -0.28764685023757
H        -2.08416520354658      -3.06782796729489      -1.46866203599215
H        -1.92117043880165      -1.31050525191284      -1.60435654279277
H        -3.17706852596143       2.83064237633909       1.21354487278579
H        -3.54799783214908       3.84942914973239      -0.18831965922639
H        -4.36569189509453       2.29121067908351       0.01657159487543
H        -4.17113635898513      -2.05712921169430      -2.34867627729882
H        -4.30196788301759      -1.02605908714461      -0.91460008099756
H        -4.47322241878235      -2.78200100691048      -0.76097251888481
C        -0.50719580054206       1.14988322981464       4.59510686300523
O         0.32991270701989       0.34893359621708       4.16862200703066
O        -0.97390469361040       1.41281042963312       5.67343257223084
C        -1.09056403404935       2.05464205477545       3.32810374256222
F        -2.12175088373991       2.86877175394312       3.54995535136944
F        -1.45432432917480       1.23995754325216       2.29611838188622
F        -0.08997667152050       2.83287421488518       2.80211718701947
