54
C14H26F6N2O4S2 optimized with ForceField in AMS.
N        -1.62571537184524      -0.29626373471685      -0.13845702114416
C        -1.90228240769990       1.11734834355951       0.26207714389046
C        -2.63595971575215      -1.21510791906460       0.47664971607212
C        -0.28492729989926      -0.72203800433262       0.38537973649599
C        -3.34608810075054       1.56508396447872      -0.02646457297617
C        -4.10084914837418      -0.80954839124797       0.22496360701744
C        -4.34884702267512       0.63460118471245       0.64645539065417
C        -1.64534450856382      -0.44081541413226      -1.61889431860105
C         0.93532719736583       0.04412555731790      -0.18407202668845
C         2.23829588714327      -0.48339981796345       0.43111955519089
C         3.45929406349128       0.24423698959820      -0.14463678498616
C         4.75742633244866      -0.30130617188686       0.46112691015747
C         5.97771046640336       0.41351910647916      -0.11145358270739
H        -1.23133034188098       1.82192669612372      -0.27482221936997
H        -1.71261190618424       1.25393608031441       1.35161564515681
H        -2.49701468278784      -1.25553282695195       1.58233431301950
H        -2.49578543996618      -2.25516559959449       0.10253127955293
H        -0.26102954042241      -0.61737770285572       1.49511477123041
H        -0.12611272050451      -1.80546263480500       0.17378365911677
H        -3.49190114846183       2.59524327468372       0.36464050315059
H        -3.53331355075279       1.60034387754061      -1.12071670849338
H        -4.38092962415800      -0.95234590274820      -0.83899331186479
H        -4.76458525199940      -1.47437763460478       0.81917374782019
H        -4.25822315910359       0.72294707894736       1.75161217546274
H        -5.38074436401919       0.93188711863267       0.36000175709026
H        -1.02211260032586       0.33643400763501      -2.10996080275153
H        -1.27356628228343      -1.44349455167577      -1.92725561895745
H        -2.65972132726489      -0.32150832515713      -2.04486896158016
H         0.99967744637373      -0.09249892919640      -1.28348713734302
H         0.85646068534182       1.12679724142497       0.04447220645802
H         2.21031797812982      -0.33847020477681       1.53374747868146
H         2.32939855374400      -1.57182570291078       0.22032248527701
H         3.37790472898097       1.33168760300411       0.07572015009441
H         3.48351727864795       0.10762125004442      -1.24840414608392
H         4.84396349939117      -1.38856801446214       0.24448592497916
H         4.74372136734610      -0.16174108488958       1.56421821943287
H         6.03070768968212       0.26567826181072      -1.21116919072042
H         5.92829130193091       1.50065302335671       0.11146540877828
H         6.89996327179158      -0.00119631521961       0.34732796190998
N         0.51902934376168      -2.99179720515193      -4.48438368391332
S         1.98735685030507      -3.71174196173604      -4.60575687636757
S         0.08876524790939      -1.69901748601167      -5.39711724167549
C         3.07779866639712      -3.02852213893506      -3.37379123072820
C        -0.85556152554879      -2.25721209723128      -6.79904153787198
O         1.83840702013772      -5.18580656381599      -4.35687688959233
O         2.57497119374884      -3.49193233659707      -5.97220159301819
O         1.30459434163256      -0.95405210059488      -5.87333080733601
O        -0.77195573685711      -0.77896033489704      -4.58167503074111
F         4.32550445081270      -3.61196711009625      -3.48572404893098
F         2.56685255302211      -3.27828562710256      -2.11436886169684
F         3.19210985971337      -1.66410386447964      -3.55828402045715
F        -1.26881706180228      -1.16667824195271      -7.54038379615045
F        -1.96300508952091      -2.95836171860022      -6.36071496018973
F        -0.07502074954869      -3.07954355596903      -7.58834639085250
